; Filename: C:/Users/jburkhar/OneDrive - Environmental Protection Agency (EPA)/OLD_Files/NicotineProject/2022_reboot/singlePassDSS_2.inp
; WNTR: 0.4.0
; Created: 2022-06-29 08:41:00
[TITLE]

[JUNCTIONS]
;ID                      Elevation       Demand Pattern                 
 1                                  0               0                            ;
 2                                  0               0                            ;
 3                                  0               0                            ;
 4                                  0               0                            ;
 5                                  0               0                            ;
 6                                  0               0                            ;
 7                                  0               0                            ;
 8                                  0               0                            ;
 9                                  0               0                            ;
 10                                 0               0                            ;
 11                                 0               0                            ;
 12                                 0               0                            ;
 13                                 0               0                            ;
 14                                 0               0                            ;
 15                                 0               0                            ;
 16                                 0              22                            ;
 InjPort                            0         -0.1321 P1                         ;
 T1                                 0               0                            ;
 SP80                               0             0.1                            ;
 SP1100                             0             0.1                            ;

[RESERVOIRS]
;ID                                   Head                  Pattern
 17                                35                            ;

[TANKS]
;ID                              Elevation           Init Level            Min Level            Max Level             Diameter           Min Volume Volume Curve         Overflow            

[PIPES]
;ID                   Node1                Node2                              Length             Diameter            Roughness           Minor Loss               Status
 1                    1                    T1                                80               3             100               0                 Open   ;
 2                    2                    3                                  1               3             100             0.8                 Open   ;
 3                    3                    4                                150               3             100               0                 Open   ;
 4                    4                    5                                  1               3             100             0.8                 Open   ;
 5                    5                    6                                150               3             100               0                 Open   ;
 6                    6                    7                                  1               3             100             0.8                 Open   ;
 7                    7                    8                                150               3             100               0                 Open   ;
 8                    8                    9                                  1               3             100             0.8                 Open   ;
 9                    9                    10                               150               3             100               0                 Open   ;
 10                   10                   11                                 1               3             100             0.8                 Open   ;
 11                   11                   12                               150               3             100               0                 Open   ;
 12                   12                   13                                 1               3             100             0.8                 Open   ;
 13                   13                   14                               150               3             100               0                 Open   ;
 14                   14                   15                                 1               3             100             0.8                 Open   ;
 15                   15                   16                               123               3             100               0                 Open   ;
 16                   1                    17                                80               3             100               0                 Open   ;
 17                   InjPort              1                                0.1               3             100               0                 Open   ;
 18                   T1                   2                                 70               3             100               0                 Open   ;
 19                   T1                   SP80                              20             0.5             100               0                 Open   ;
 20                   16                   SP1100                            20             0.5             100               0                 Open   ;

[PUMPS]
;ID                   Node1                Node2                Properties          

[VALVES]
;ID                   Node1                Node2                            Diameter Type              Setting           Minor Loss

[TAGS]
;type      name       tag       

[DEMANDS]
;ID        Demand     Pattern   

[STATUS]
;ID        Setting   

[PATTERNS]
;ID        Multipliers

P1 1.000000 1.000000 1.000000 1.000000 1.000000 1.000000
P1 1.000000 1.000000 1.000000 1.000000 1.000000 1.000000
P1 1.000000 1.000000 1.000000 1.000000 1.000000 1.000000
P1 1.000000 1.000000 1.000000 1.000000 1.000000 1.000000
P1 1.000000 1.000000 1.000000 1.000000 1.000000 1.000000
P1 1.000000 1.000000 1.000000 1.000000 1.000000 1.000000
P1 1.000000 1.000000 1.000000 1.000000 1.000000 1.000000
P1 1.000000 1.000000 1.000000 1.000000 1.000000 1.000000
P1 1.000000 1.000000 1.000000 1.000000 1.000000 1.000000
P1 1.000000 1.000000 1.000000 1.000000 1.000000 1.000000
P1 1.000000 1.000000 1.000000 1.000000 1.000000 1.000000
P1 1.000000 1.000000 1.000000 1.000000 1.000000 1.000000
P1 1.000000 1.000000 1.000000 1.000000 1.000000 1.000000
P1 1.000000 1.000000 1.000000 1.000000 1.000000 1.000000
P1 1.000000 1.000000 1.000000 1.000000 1.000000 1.000000
P1 1.000000 1.000000 1.000000 1.000000 1.000000 1.000000
P1 1.000000 1.000000 1.000000 1.000000 1.000000 1.000000
P1 1.000000 1.000000 1.000000 1.000000 1.000000 1.000000
P1 1.000000 1.000000 1.000000 1.000000 1.000000 1.000000
P1 1.000000 1.000000 1.000000 1.000000 1.000000 1.000000
P1 1.000000 1.000000 1.000000 1.000000 1.000000 1.000000
P1 1.000000 1.000000 1.000000 1.000000 1.000000 1.000000
P1 1.000000 1.000000 1.000000 1.000000 1.000000 1.000000
P1 1.000000 1.000000 1.000000 1.000000 1.000000 1.000000
P1 1.000000 1.000000 1.000000 1.000000 1.000000 1.000000
P1 1.000000 1.000000 1.000000 1.000000 1.000000 1.000000
P1 1.000000 1.000000 1.000000 1.000000 1.000000 1.000000
P1 1.000000 1.000000 1.000000 1.000000 1.000000 1.000000
P1 1.000000 1.000000 1.000000 1.000000 1.000000 1.000000
P1 1.000000 1.000000 1.000000 1.000000 1.000000 1.000000
P1 1.000000 1.000000 1.000000 1.000000 1.000000 1.000000
P1 1.000000 1.000000 1.000000 1.000000 1.000000 1.000000
P1 1.000000 1.000000 1.000000 1.000000 1.000000 1.000000
P1 1.000000 1.000000 1.000000 1.000000 1.000000 1.000000
P1 1.000000 1.000000 1.000000 1.000000 1.000000 1.000000
P1 1.000000 1.000000 1.000000 1.000000 1.000000 1.000000
P1 1.000000 1.000000 1.000000 1.000000 1.000000 1.000000
P1 1.000000 1.000000 1.000000 1.000000 1.000000 1.000000
P1 1.000000 1.000000 1.000000 1.000000 1.000000 1.000000
P1 1.000000 1.000000 1.000000 1.000000 1.000000 1.000000
P1 1.000000 1.000000 1.000000 1.000000 1.000000 1.000000
P1 1.000000 1.000000 1.000000 1.000000 1.000000 1.000000
P1 1.000000 1.000000 1.000000 1.000000 1.000000 1.000000
P1 1.000000 1.000000 1.000000 1.000000 1.000000 1.000000
P1 1.000000 1.000000 1.000000 1.000000 1.000000 1.000000
P1 1.000000 1.000000 1.000000 1.000000 1.000000 1.000000
P1 1.000000 1.000000 1.000000 1.000000 1.000000 1.000000
P1 1.000000 1.000000 1.000000 1.000000 1.000000 1.000000
P1 1.000000 1.000000 1.000000 1.000000 1.000000 1.000000
P1 1.000000 1.000000 1.000000 1.000000 1.000000 1.000000
P1 1.000000 1.000000 1.000000 1.000000 1.000000 1.000000
P1 1.000000 1.000000 1.000000 1.000000 1.000000 1.000000
P1 1.000000 1.000000 1.000000 1.000000 1.000000 1.000000
P1 1.000000 1.000000 1.000000 1.000000 1.000000 1.000000
P1 1.000000 1.000000 1.000000 1.000000 1.000000 1.000000
P1 1.000000 1.000000 1.000000 1.000000 1.000000 1.000000
P1 1.000000 1.000000 1.000000 1.000000 1.000000 1.000000
P1 1.000000 1.000000 1.000000 1.000000 1.000000 1.000000
P1 1.000000 1.000000 1.000000 1.000000 1.000000 1.000000
P1 1.000000 1.000000 1.000000 1.000000 1.000000 1.000000
P1 1.000000 1.000000 1.000000 1.000000 1.000000 1.000000
P1 1.000000 1.000000 1.000000 1.000000 1.000000 1.000000
P1 1.000000 1.000000 1.000000 1.000000 1.000000 1.000000
P1 1.000000 1.000000 1.000000 1.000000 1.000000 1.000000
P1 1.000000 1.000000 1.000000 1.000000 1.000000 1.000000
P1 1.000000 1.000000 1.000000 1.000000 1.000000 1.000000
P1 1.000000 1.000000 1.000000 1.000000 1.000000 1.000000
P1 1.000000 1.000000 1.000000 1.000000 1.000000 1.000000
P1 1.000000 1.000000 1.000000 1.000000 1.000000 1.000000
P1 1.000000 1.000000 1.000000 1.000000 1.000000 1.000000
P1 1.000000 1.000000 1.000000 1.000000 1.000000 1.000000
P1 1.000000 1.000000 1.000000 1.000000 1.000000 1.000000
P1 1.000000 1.000000 1.000000 1.000000 1.000000 1.000000
P1 1.000000 1.000000 1.000000 1.000000 1.000000 1.000000
P1 1.000000 1.000000 1.000000 1.000000 1.000000 1.000000
P1 1.000000 1.000000 1.000000 1.000000 1.000000 1.000000
P1 1.000000 1.000000 1.000000 1.000000 1.000000 1.000000
P1 1.000000 1.000000 1.000000 1.000000 1.000000 1.000000
P1 1.000000 1.000000 1.000000 1.000000 1.000000 1.000000
P1 1.000000 1.000000 1.000000 1.000000 1.000000 1.000000
P1 1.000000 1.000000 1.000000 1.000000 1.000000 1.000000
P1 1.000000 1.000000 1.000000 1.000000 1.000000 1.000000
P1 1.000000 1.000000 1.000000 1.000000 1.000000 1.000000
P1 1.000000 1.000000 1.000000 1.000000 1.000000 1.000000
P1 1.000000 1.000000 1.000000 1.000000 1.000000 1.000000
P1 1.000000 1.000000 1.000000 1.000000 1.000000 1.000000
P1 1.000000 1.000000 1.000000 1.000000 1.000000 1.000000
P1 1.000000 1.000000 1.000000 1.000000 1.000000 1.000000
P1 1.000000 1.000000 1.000000 1.000000 1.000000 1.000000
P1 1.000000 1.000000 1.000000 1.000000 1.000000 1.000000
P1 1.000000 1.000000 1.000000 1.000000 1.000000 1.000000
P1 1.000000 1.000000 1.000000 1.000000 1.000000 1.000000
P1 1.000000 1.000000 1.000000 1.000000 1.000000 1.000000
P1 1.000000 1.000000 1.000000 1.000000 1.000000 1.000000
P1 1.000000 1.000000 1.000000 1.000000 1.000000 1.000000
P1 1.000000 1.000000 1.000000 1.000000 1.000000 1.000000
P1 1.000000 1.000000 1.000000 1.000000 1.000000 1.000000
P1 1.000000 1.000000 1.000000 1.000000 1.000000 1.000000
P1 1.000000 1.000000 1.000000 1.000000 1.000000 1.000000
P1 1.000000 1.000000 1.000000 1.000000 1.000000 1.000000
P1 1.000000 1.000000 1.000000 1.000000 1.000000 1.000000
P1 1.000000 1.000000 1.000000 1.000000 1.000000 1.000000
P1 1.000000 1.000000 1.000000 1.000000 1.000000 1.000000
P1 1.000000 1.000000 1.000000 1.000000 1.000000 1.000000
P1 1.000000 1.000000 1.000000 1.000000 1.000000 1.000000
P1 1.000000 1.000000 1.000000 1.000000 1.000000 1.000000
P1 1.000000 1.000000 1.000000 1.000000 1.000000 1.000000
P1 1.000000 1.000000 1.000000 1.000000 1.000000 1.000000
P1 1.000000 1.000000 1.000000 1.000000 1.000000 1.000000
P1 1.000000 1.000000 1.000000 1.000000 1.000000 1.000000
P1 1.000000 1.000000 1.000000 1.000000 1.000000 1.000000
P1 1.000000 1.000000 1.000000 1.000000 1.000000 1.000000
P1 1.000000 1.000000 1.000000 1.000000 1.000000 1.000000
P1 1.000000 1.000000 1.000000 1.000000 1.000000 1.000000
P1 1.000000 1.000000 1.000000 1.000000 1.000000 1.000000
P1 1.000000 1.000000 1.000000 1.000000 1.000000 1.000000
P1 1.000000 1.000000 1.000000 1.000000 1.000000 1.000000
P1 1.000000 1.000000 1.000000 1.000000 1.000000 1.000000
P1 1.000000 1.000000 1.000000 1.000000 1.000000 1.000000
P1 1.000000 1.000000 1.000000 1.000000 1.000000 1.000000
P1 1.000000 1.000000 1.000000 1.000000 1.000000 1.000000
P1 1.000000 1.000000 1.000000 1.000000 1.000000 1.000000
P1 1.000000 1.000000 1.000000 1.000000 1.000000 1.000000
P1 1.000000 1.000000 1.000000 1.000000 1.000000 1.000000
P1 1.000000 1.000000 1.000000 1.000000 1.000000 1.000000
P1 1.000000 1.000000 1.000000 1.000000 1.000000 1.000000
P1 1.000000 1.000000 1.000000 1.000000 1.000000 1.000000
P1 1.000000 1.000000 1.000000 1.000000 1.000000 1.000000
P1 1.000000 1.000000 1.000000 1.000000 1.000000 1.000000
P1 1.000000 1.000000 1.000000 1.000000 1.000000 1.000000
P1 1.000000 1.000000 1.000000 1.000000 1.000000 1.000000
P1 1.000000 1.000000 1.000000 1.000000 1.000000 1.000000
P1 1.000000 1.000000 1.000000 1.000000 1.000000 1.000000
P1 1.000000 1.000000 1.000000 1.000000 1.000000 1.000000
P1 1.000000 1.000000 1.000000 1.000000 1.000000 1.000000
P1 1.000000 1.000000 1.000000 1.000000 1.000000 1.000000
P1 1.000000 1.000000 1.000000 1.000000 1.000000 1.000000
P1 1.000000 1.000000 1.000000 1.000000 1.000000 1.000000
P1 1.000000 1.000000 1.000000 1.000000 1.000000 1.000000
P1 1.000000 1.000000 1.000000 1.000000 1.000000 1.000000
P1 1.000000 1.000000 1.000000 1.000000 1.000000 1.000000
P1 1.000000 1.000000 1.000000 1.000000 1.000000 1.000000
P1 1.000000 1.000000 1.000000 1.000000 1.000000 1.000000
P1 1.000000 1.000000 1.000000 1.000000 1.000000 1.000000
P1 1.000000 1.000000 1.000000 1.000000 1.000000 1.000000
P1 1.000000 1.000000 1.000000 1.000000 1.000000 1.000000
P1 1.000000 1.000000 1.000000 1.000000 1.000000 1.000000
P1 1.000000 1.000000 1.000000 1.000000 1.000000 1.000000
P1 1.000000 1.000000 1.000000 1.000000 1.000000 1.000000
P1 1.000000 1.000000 1.000000 1.000000 1.000000 1.000000
P1 1.000000 1.000000 1.000000 1.000000 1.000000 1.000000
P1 1.000000 1.000000 1.000000 1.000000 1.000000 1.000000
P1 1.000000 1.000000 1.000000 1.000000 1.000000 1.000000
P1 1.000000 1.000000 1.000000 1.000000 1.000000 1.000000
P1 1.000000 1.000000 1.000000 1.000000 1.000000 1.000000
P1 1.000000 1.000000 1.000000 1.000000 1.000000 1.000000
P1 1.000000 1.000000 1.000000 1.000000 1.000000 1.000000
P1 1.000000 1.000000 1.000000 1.000000 1.000000 1.000000
P1 1.000000 1.000000 1.000000 1.000000 1.000000 1.000000
P1 1.000000 1.000000 1.000000 1.000000 1.000000 1.000000
P1 1.000000 1.000000 1.000000 1.000000 1.000000 1.000000
P1 1.000000 1.000000 1.000000 1.000000 1.000000 1.000000
P1 1.000000 1.000000 1.000000 1.000000 1.000000 1.000000
P1 1.000000 1.000000 1.000000 1.000000 1.000000 1.000000
P1 1.000000 1.000000 1.000000 1.000000 1.000000 1.000000
P1 1.000000 1.000000 1.000000 1.000000 1.000000 1.000000
P1 1.000000 1.000000 1.000000 1.000000 1.000000 1.000000
P1 1.000000 1.000000 1.000000 1.000000 1.000000 1.000000
P1 1.000000 1.000000 1.000000 1.000000 1.000000 1.000000
P1 1.000000 1.000000 1.000000 1.000000 1.000000 1.000000
P1 1.000000 1.000000 1.000000 1.000000 1.000000 1.000000
P1 1.000000 1.000000 1.000000 1.000000 1.000000 1.000000
P1 1.000000 1.000000 1.000000 1.000000 1.000000 1.000000
P1 1.000000 1.000000 1.000000 1.000000 1.000000 1.000000
P1 1.000000 1.000000 1.000000 1.000000 1.000000 1.000000
P1 1.000000 1.000000 1.000000 1.000000 1.000000 1.000000
P1 1.000000 1.000000 1.000000 1.000000 1.000000 1.000000
P1 1.000000 1.000000 1.000000 1.000000 1.000000 1.000000
P1 1.000000 1.000000 1.000000 1.000000 1.000000 1.000000
P1 1.000000 1.000000 1.000000 1.000000 1.000000 1.000000
P1 1.000000 1.000000 1.000000 1.000000 1.000000 1.000000
P1 1.000000 1.000000 1.000000 1.000000 1.000000 1.000000
P1 1.000000 1.000000 1.000000 1.000000 1.000000 1.000000
P1 1.000000 1.000000 1.000000 1.000000 1.000000 1.000000
P1 1.000000 1.000000 1.000000 1.000000 1.000000 1.000000
P1 1.000000 1.000000 1.000000 1.000000 1.000000 1.000000
P1 1.000000 1.000000 1.000000 1.000000 1.000000 1.000000
P1 1.000000 1.000000 1.000000 1.000000 1.000000 1.000000
P1 1.000000 1.000000 1.000000 1.000000 1.000000 1.000000
P1 1.000000 1.000000 1.000000 1.000000 1.000000 1.000000
P1 1.000000 1.000000 1.000000 1.000000 1.000000 1.000000
P1 1.000000 1.000000 1.000000 1.000000 1.000000 1.000000
P1 1.000000 1.000000 1.000000 1.000000 1.000000 1.000000
P1 1.000000 1.000000 1.000000 1.000000 1.000000 1.000000
P1 1.000000 1.000000 1.000000 1.000000 1.000000 1.000000
P1 1.000000 1.000000 1.000000 1.000000 1.000000 1.000000
P1 1.000000 1.000000 1.000000 1.000000 1.000000 1.000000
P1 1.000000 1.000000 1.000000 1.000000 1.000000 1.000000
P1 1.000000 1.000000 1.000000 1.000000 1.000000 1.000000
P1 1.000000 1.000000 1.000000 1.000000 1.000000 1.000000
P1 0.000000 0.000000 0.000000 0.000000 0.000000 0.000000
P1 0.000000 0.000000 0.000000 0.000000 0.000000 0.000000
P1 0.000000 0.000000 0.000000 0.000000 0.000000 0.000000
P1 0.000000 0.000000 0.000000 0.000000 0.000000 0.000000
P1 0.000000 0.000000 0.000000 0.000000 0.000000 0.000000
P1 0.000000 0.000000 0.000000 0.000000 0.000000 0.000000
P1 0.000000 0.000000 0.000000 0.000000 0.000000 0.000000
P1 0.000000 0.000000 0.000000 0.000000 0.000000 0.000000
P1 0.000000 0.000000 0.000000 0.000000 0.000000 0.000000
P1 0.000000 0.000000 0.000000 0.000000 0.000000 0.000000
P1 0.000000 0.000000 0.000000 0.000000 0.000000 0.000000
P1 0.000000 0.000000 0.000000 0.000000 0.000000 0.000000
P1 0.000000 0.000000 0.000000 0.000000 0.000000 0.000000
P1 0.000000 0.000000 0.000000 0.000000 0.000000 0.000000
P1 0.000000 0.000000 0.000000 0.000000 0.000000 0.000000
P1 0.000000 0.000000 0.000000 0.000000 0.000000 0.000000
P1 0.000000 0.000000 0.000000 0.000000 0.000000 0.000000
P1 0.000000 0.000000 0.000000 0.000000 0.000000 0.000000
P1 0.000000 0.000000 0.000000 0.000000 0.000000 0.000000
P1 0.000000 0.000000 0.000000 0.000000 0.000000 0.000000
P1 0.000000 0.000000 0.000000 0.000000 0.000000 0.000000
P1 0.000000 0.000000 0.000000 0.000000 0.000000 0.000000
P1 0.000000 0.000000 0.000000 0.000000 0.000000 0.000000
P1 0.000000 0.000000 0.000000 0.000000 0.000000 0.000000
P1 0.000000 0.000000 0.000000 0.000000 0.000000 0.000000
P1 0.000000 0.000000 0.000000 0.000000 0.000000 0.000000
P1 0.000000 0.000000 0.000000 0.000000 0.000000 0.000000
P1 0.000000 0.000000 0.000000 0.000000 0.000000 0.000000
P1 0.000000 0.000000 0.000000 0.000000 0.000000 0.000000
P1 0.000000 0.000000 0.000000 0.000000 0.000000 0.000000
P1 0.000000 0.000000 0.000000 0.000000 0.000000 0.000000
P1 0.000000 0.000000 0.000000 0.000000 0.000000 0.000000
P1 0.000000 0.000000 0.000000 0.000000 0.000000 0.000000
P1 0.000000 0.000000 0.000000 0.000000 0.000000 0.000000
P1 0.000000 0.000000 0.000000 0.000000 0.000000 0.000000
P1 0.000000 0.000000 0.000000 0.000000 0.000000 0.000000
P1 0.000000 0.000000 0.000000 0.000000 0.000000 0.000000
P1 0.000000 0.000000 0.000000 0.000000 0.000000 0.000000
P1 0.000000 0.000000 0.000000 0.000000 0.000000 0.000000
P1 0.000000 0.000000 0.000000 0.000000 0.000000 0.000000
P1 0.000000 0.000000 0.000000 0.000000 0.000000 0.000000
P1 0.000000 0.000000 0.000000 0.000000 0.000000 0.000000
P1 0.000000 0.000000 0.000000 0.000000 0.000000 0.000000
P1 0.000000 0.000000 0.000000 0.000000 0.000000 0.000000
P1 0.000000 0.000000 0.000000 0.000000 0.000000 0.000000
P1 0.000000 0.000000 0.000000 0.000000 0.000000 0.000000
P1 0.000000 0.000000 0.000000 0.000000 0.000000 0.000000
P1 0.000000 0.000000 0.000000 0.000000 0.000000 0.000000
P1 0.000000 0.000000 0.000000 0.000000 0.000000 0.000000
P1 0.000000 0.000000 0.000000 0.000000 0.000000 0.000000
P1 0.000000 0.000000 0.000000 0.000000 0.000000 0.000000
P1 0.000000 0.000000 0.000000 0.000000 0.000000 0.000000
P1 0.000000 0.000000 0.000000 0.000000 0.000000 0.000000
P1 0.000000 0.000000 0.000000 0.000000 0.000000 0.000000
P1 0.000000 0.000000 0.000000 0.000000 0.000000 0.000000
P1 0.000000 0.000000 0.000000 0.000000 0.000000 0.000000
P1 0.000000 0.000000 0.000000 0.000000 0.000000 0.000000
P1 0.000000 0.000000 0.000000 0.000000 0.000000 0.000000
P1 0.000000 0.000000 0.000000 0.000000 0.000000 0.000000
P1 0.000000 0.000000 0.000000 0.000000 0.000000 0.000000
P1 0.000000 0.000000 0.000000 0.000000 0.000000 0.000000
P1 0.000000 0.000000 0.000000 0.000000 0.000000 0.000000
P1 0.000000 0.000000 0.000000 0.000000 0.000000 0.000000
P1 0.000000 0.000000 0.000000 0.000000 0.000000 0.000000
P1 0.000000 0.000000 0.000000 0.000000 0.000000 0.000000
P1 0.000000 0.000000 0.000000 0.000000 0.000000 0.000000
P1 0.000000 0.000000 0.000000 0.000000 0.000000 0.000000
P1 0.000000 0.000000 0.000000 0.000000 0.000000 0.000000
P1 0.000000 0.000000 0.000000 0.000000 0.000000 0.000000
P1 0.000000 0.000000 0.000000 0.000000 0.000000 0.000000
P1 0.000000 0.000000 0.000000 0.000000 0.000000 0.000000
P1 0.000000 0.000000 0.000000 0.000000 0.000000 0.000000
P1 0.000000 0.000000 0.000000 0.000000 0.000000 0.000000
P1 0.000000 0.000000 0.000000 0.000000 0.000000 0.000000
P1 0.000000 0.000000 0.000000 0.000000 0.000000 0.000000
P1 0.000000 0.000000 0.000000 0.000000 0.000000 0.000000
P1 0.000000 0.000000 0.000000 0.000000 0.000000 0.000000
P1 0.000000 0.000000 0.000000 0.000000 0.000000 0.000000
P1 0.000000 0.000000 0.000000 0.000000 0.000000 0.000000
P1 0.000000 0.000000 0.000000 0.000000 0.000000 0.000000
P1 0.000000 0.000000 0.000000 0.000000 0.000000 0.000000
P1 0.000000 0.000000 0.000000 0.000000 0.000000 0.000000
P1 0.000000 0.000000 0.000000 0.000000 0.000000 0.000000
P1 0.000000 0.000000 0.000000 0.000000 0.000000 0.000000
P1 0.000000 0.000000 0.000000 0.000000 0.000000 0.000000
P1 0.000000 0.000000 0.000000 0.000000 0.000000 0.000000
P1 0.000000 0.000000 0.000000 0.000000 0.000000 0.000000
P1 0.000000 0.000000 0.000000 0.000000 0.000000 0.000000
P1 0.000000 0.000000 0.000000 0.000000 0.000000 0.000000
P1 0.000000 0.000000 0.000000 0.000000 0.000000 0.000000
P1 0.000000 0.000000 0.000000 0.000000 0.000000 0.000000
P1 0.000000 0.000000 0.000000 0.000000 0.000000 0.000000
P1 0.000000 0.000000 0.000000 0.000000 0.000000 0.000000
P1 0.000000 0.000000 0.000000 0.000000 0.000000 0.000000
P1 0.000000 0.000000 0.000000 0.000000 0.000000 0.000000
P1 0.000000 0.000000 0.000000 0.000000 0.000000 0.000000
P1 0.000000 0.000000 0.000000 0.000000 0.000000 0.000000
P1 0.000000 0.000000 0.000000 0.000000 0.000000 0.000000
P1 0.000000 0.000000 0.000000 0.000000 0.000000 0.000000
P1 0.000000 0.000000 0.000000 0.000000 0.000000 0.000000
P1 0.000000 0.000000 0.000000 0.000000 0.000000 0.000000
P1 0.000000 0.000000 0.000000 0.000000 0.000000 0.000000
P1 0.000000 0.000000 0.000000 0.000000 0.000000 0.000000
P1 0.000000 0.000000 0.000000 0.000000 0.000000 0.000000
P1 0.000000 0.000000 0.000000 0.000000 0.000000 0.000000
P1 0.000000 0.000000 0.000000 0.000000 0.000000 0.000000
P1 0.000000 0.000000 0.000000 0.000000 0.000000 0.000000
P1 0.000000 0.000000 0.000000 0.000000 0.000000 0.000000
P1 0.000000 0.000000 0.000000 0.000000 0.000000 0.000000
P1 0.000000 0.000000 0.000000 0.000000 0.000000 0.000000
P1 0.000000 0.000000 0.000000 0.000000 0.000000 0.000000
P1 0.000000 0.000000 0.000000 0.000000 0.000000 0.000000
P1 0.000000 0.000000 0.000000 0.000000 0.000000 0.000000
P1 0.000000 0.000000 0.000000 0.000000 0.000000 0.000000
P1 0.000000 0.000000 0.000000 0.000000 0.000000 0.000000
P1 0.000000 0.000000 0.000000 0.000000 0.000000 0.000000
P1 0.000000 0.000000 0.000000 0.000000 0.000000 0.000000
P1 0.000000 0.000000 0.000000 0.000000 0.000000 0.000000
P1 0.000000 0.000000 0.000000 0.000000 0.000000 0.000000
P1 0.000000 0.000000 0.000000 0.000000 0.000000 0.000000
P1 0.000000 0.000000 0.000000 0.000000 0.000000 0.000000
P1 0.000000 0.000000 0.000000 0.000000 0.000000 0.000000
P1 0.000000 0.000000 0.000000 0.000000 0.000000 0.000000
P1 0.000000 0.000000 0.000000 0.000000 0.000000 0.000000
P1 0.000000 0.000000 0.000000 0.000000 0.000000 0.000000
P1 0.000000 0.000000 0.000000 0.000000 0.000000 0.000000
P1 0.000000 0.000000 0.000000 0.000000 0.000000 0.000000
P1 0.000000 0.000000 0.000000 0.000000 0.000000 0.000000
P1 0.000000 0.000000 0.000000 0.000000 0.000000 0.000000
P1 0.000000 0.000000 0.000000 0.000000 0.000000 0.000000
P1 0.000000 0.000000 0.000000 0.000000 0.000000 0.000000
P1 0.000000 0.000000 0.000000 0.000000 0.000000 0.000000
P1 0.000000 0.000000 0.000000 0.000000 0.000000 0.000000
P1 0.000000 0.000000 0.000000 0.000000 0.000000 0.000000
P1 0.000000 0.000000 0.000000 0.000000 0.000000 0.000000
P1 0.000000 0.000000 0.000000 0.000000 0.000000 0.000000
P1 0.000000 0.000000 0.000000 0.000000 0.000000 0.000000
P1 0.000000 0.000000 0.000000 0.000000 0.000000 0.000000
P1 0.000000 0.000000 0.000000 0.000000 0.000000 0.000000
P1 0.000000 0.000000 0.000000 0.000000 0.000000 0.000000
P1 0.000000 0.000000 0.000000 0.000000 0.000000 0.000000
P1 0.000000 0.000000 0.000000 0.000000 0.000000 0.000000
P1 0.000000 0.000000 0.000000 0.000000 0.000000 0.000000
P1 0.000000 0.000000 0.000000 0.000000 0.000000 0.000000
P1 0.000000 0.000000 0.000000 0.000000 0.000000 0.000000
P1 0.000000 0.000000 0.000000 0.000000 0.000000 0.000000
P1 0.000000 0.000000 0.000000 0.000000 0.000000 0.000000
P1 0.000000 0.000000 0.000000 0.000000 0.000000 0.000000
P1 0.000000 0.000000 0.000000 0.000000 0.000000 0.000000
P1 0.000000 0.000000 0.000000 0.000000 0.000000 0.000000
P1 0.000000 0.000000 0.000000 0.000000 0.000000 0.000000
P1 0.000000 0.000000 0.000000 0.000000 0.000000 0.000000
P1 0.000000 0.000000 0.000000 0.000000 0.000000 0.000000
P1 0.000000 0.000000 0.000000 0.000000 0.000000 0.000000
P1 0.000000 0.000000 0.000000 0.000000 0.000000 0.000000
P1 0.000000 0.000000 0.000000 0.000000 0.000000 0.000000
P1 0.000000 0.000000 0.000000 0.000000 0.000000 0.000000
P1 0.000000 0.000000 0.000000 0.000000 0.000000 0.000000
P1 0.000000 0.000000 0.000000 0.000000 0.000000 0.000000
P1 0.000000 0.000000 0.000000 0.000000 0.000000 0.000000
P1 0.000000 0.000000 0.000000 0.000000 0.000000 0.000000
P1 0.000000 0.000000 0.000000 0.000000 0.000000 0.000000
P1 0.000000 0.000000 0.000000 0.000000 0.000000 0.000000
P1 0.000000 0.000000 0.000000 0.000000 0.000000 0.000000
P1 0.000000 0.000000 0.000000 0.000000 0.000000 0.000000
P1 0.000000 0.000000 0.000000 0.000000 0.000000 0.000000
P1 0.000000 0.000000 0.000000 0.000000 0.000000 0.000000
P1 0.000000 0.000000 0.000000 0.000000 0.000000 0.000000
P1 0.000000 0.000000 0.000000 0.000000 0.000000 0.000000
P1 0.000000 0.000000 0.000000 0.000000 0.000000 0.000000
P1 0.000000 0.000000 0.000000 0.000000 0.000000 0.000000
P1 0.000000 0.000000 0.000000 0.000000 0.000000 0.000000
P1 0.000000 0.000000 0.000000 0.000000 0.000000 0.000000
P1 0.000000 0.000000 0.000000 0.000000 0.000000 0.000000
P1 0.000000 0.000000 0.000000 0.000000 0.000000 0.000000
P1 0.000000 0.000000 0.000000 0.000000 0.000000 0.000000
P1 0.000000 0.000000 0.000000 0.000000 0.000000 0.000000
P1 0.000000 0.000000 0.000000 0.000000 0.000000 0.000000
P1 0.000000 0.000000 0.000000 0.000000 0.000000 0.000000
P1 0.000000 0.000000 0.000000 0.000000 0.000000 0.000000
P1 0.000000 0.000000 0.000000 0.000000 0.000000 0.000000
P1 0.000000 0.000000 0.000000 0.000000 0.000000 0.000000
P1 0.000000 0.000000 0.000000 0.000000 0.000000 0.000000
P1 0.000000 0.000000 0.000000 0.000000 0.000000 0.000000
P1 0.000000 0.000000 0.000000 0.000000 0.000000 0.000000
P1 0.000000 0.000000 0.000000 0.000000 0.000000 0.000000
P1 0.000000 0.000000 0.000000 0.000000 0.000000 0.000000
P1 0.000000 0.000000 0.000000 0.000000 0.000000 0.000000
P1 0.000000 0.000000 0.000000 0.000000 0.000000 0.000000
P1 0.000000 0.000000 0.000000 0.000000 0.000000 0.000000
P1 0.000000 0.000000 0.000000 0.000000 0.000000 0.000000
P1 0.000000 0.000000 0.000000 0.000000 0.000000 0.000000
P1 0.000000 0.000000 0.000000 0.000000 0.000000 0.000000
P1 0.000000 0.000000 0.000000 0.000000 0.000000 0.000000
P1 0.000000 0.000000 0.000000 0.000000 0.000000 0.000000
P1 0.000000 0.000000 0.000000 0.000000 0.000000 0.000000
P1 0.000000 0.000000 0.000000 0.000000 0.000000 0.000000
P1 0.000000 0.000000 0.000000 0.000000 0.000000 0.000000
P1 0.000000 0.000000 0.000000 0.000000 0.000000 0.000000
P1 0.000000 0.000000 0.000000 0.000000 0.000000 0.000000
P1 0.000000 0.000000 0.000000 0.000000 0.000000 0.000000
P1 0.000000 0.000000 0.000000 0.000000 0.000000 0.000000
P1 0.000000 0.000000 0.000000 0.000000 0.000000 0.000000
P1 0.000000 0.000000 0.000000 0.000000 0.000000 0.000000
P1 0.000000 0.000000 0.000000 0.000000 0.000000 0.000000
P1 0.000000 0.000000 0.000000 0.000000 0.000000 0.000000
P1 0.000000 0.000000 0.000000 0.000000 0.000000 0.000000
P1 0.000000 0.000000 0.000000 0.000000 0.000000 0.000000
P1 0.000000 0.000000 0.000000 0.000000 0.000000 0.000000
P1 0.000000 0.000000 0.000000 0.000000 0.000000 0.000000
P1 0.000000 0.000000 0.000000 0.000000 0.000000 0.000000
P1 0.000000 0.000000 0.000000 0.000000 0.000000 0.000000
P1 0.000000 0.000000 0.000000 0.000000 0.000000 0.000000
P1 0.000000 0.000000 0.000000 0.000000 0.000000 0.000000
P1 0.000000 0.000000 0.000000 0.000000 0.000000 0.000000
P1 0.000000 0.000000 0.000000 0.000000 0.000000 0.000000
P1 0.000000 0.000000 0.000000 0.000000 0.000000 0.000000
P1 0.000000 0.000000 0.000000 0.000000 0.000000 0.000000
P1 0.000000 0.000000 0.000000 0.000000 0.000000 0.000000
P1 0.000000 0.000000 0.000000 0.000000 0.000000 0.000000
P1 0.000000 0.000000 0.000000 0.000000 0.000000 0.000000
P1 0.000000 0.000000 0.000000 0.000000 0.000000 0.000000