[TITLE]
MSX Builder - Python Generated File

[OPTIONS]
  AREA_UNITS M2 			;Surface concentration in mass/area_units
  RATE_UNITS MIN 			;Reaction rates are concentration/rate_units
  SOLVER     RK5 			;RK5, 5th order Runge-Kutta Integrator or  ROS2, 2nd order Rosenbrock or EUL, Euler
  TIMESTEP   60 			;in seconds, Default 60 seconds
  COUPLING   NONE 			;Default NONE?
  RTOL       0.0001 			;Relative concentration tolerance, 1e-4 default
  ATOL       0.0001 			;Absolute concentration tolerance, 1e-4 default
  SEGMENTS   5000 			;Maximum number of segments per pipe (MSX 2.0 or newer only)
  PECLET     1000 			;Peclet threshold for applying dispersion, 1000 default (MSX 2.0 or newer only)

[SPECIES]
  BULK Nx         MG			;Nicotine
  BULK HOCL       MG			;Chlorine

[COEFFICIENTS]
  CONSTANT kd         3e-05			;Decay rate (min^-1)
  CONSTANT K1         0.056			;decay constant for chlorine: L (mg Nic)^-1 min^-1
  CONSTANT K2         0.157			;decay constant for nicotine: L (mg Cl)^-1 min^-1

[TERMS]
  RXCL		kd*HOCL+K1*Nx*HOCL			;
  RXN		K2*Nx*HOCL			;Nicotine Reaction Rate

[PIPES]
  RATE	Nx		-RXN			;
  RATE	HOCL		-RXCL			;

[TANKS]
  RATE	Nx		0			;
  RATE	HOCL		0			;

[SOURCES]
  CONCEN	17				HOCL		0.88						;
  CONCEN	InjPort				Nx		66.6162			P2			;

[DIFFUSIVITY]
  Nx	1.0
  HOCL	1.0

[PARAMETERS]

[QUALITY]
  GLOBAL	HOCL				0.88			;

[PATTERNS]
  P2	0.0	0.0	0.0	0.0	0.0	0.0	0.0	0.0	0.0	0.0
  P2	0.0	0.0	0.0	0.0	0.0	0.0	0.0	0.0	0.0	0.0
  P2	0.0	0.0	0.0	0.0	0.0	0.0	0.0	0.0	0.0	0.0
  P2	0.0	0.0	0.0	0.0	0.0	0.0	0.0	0.0	0.0	0.0
  P2	0.0	0.0	0.0	0.0	0.0	0.0	0.0	0.0	0.0	0.0
  P2	0.0	0.0	0.0	0.0	0.0	0.0	0.0	0.0	0.0	0.0
  P2	0.0	0.0	0.0	0.0	0.0	0.0	0.0	0.0	0.0	0.0
  P2	0.0	0.0	0.0	0.0	0.0	0.0	0.0	0.0	0.0	0.0
  P2	0.0	0.0	0.0	0.0	0.0	0.0	0.0	0.0	0.0	0.0
  P2	0.0	0.0	0.0	0.0	0.0	0.0	0.0	0.0	0.0	0.0
  P2	0.0	0.0	0.0	0.0	0.0	0.0	0.0	0.0	0.0	0.0
  P2	0.0	0.0	0.0	0.0	0.0	0.0	0.0	0.0	0.0	0.0
  P2	0.0	0.0	0.0	0.0	0.0	0.0	0.0	0.0	0.0	0.0
  P2	0.0	0.0	0.0	0.0	0.0	0.0	0.0	0.0	0.0	0.0
  P2	0.0	0.0	0.0	0.0	0.0	0.0	0.0	0.0	0.0	0.0
  P2	0.0	0.0	0.0	0.0	0.0	0.0	0.0	0.0	0.0	0.0
  P2	0.0	0.0	0.0	0.0	0.0	0.0	0.0	0.0	0.0	0.0
  P2	0.0	0.0	0.0	0.0	0.0	0.0	0.0	0.0	0.0	0.0
  P2	0.0	0.0	0.0	0.0	0.0	0.0	0.0	0.0	0.0	0.0
  P2	0.0	0.0	0.0	0.0	0.0	0.0	0.0	0.0	0.0	0.0
  P2	0.0	0.0	0.0	0.0	0.0	0.0	0.0	0.0	0.0	0.0
  P2	0.0	0.0	0.0	0.0	0.0	0.0	0.0	0.0	0.0	0.0
  P2	0.0	0.0	0.0	0.0	0.0	0.0	0.0	0.0	0.0	0.0
  P2	0.0	0.0	0.0	0.0	0.0	0.0	0.0	0.0	0.0	0.0
  P2	0.0	0.0	0.0	0.0	0.0	0.0	0.0	0.0	0.0	0.0
  P2	0.0	0.0	0.0	0.0	0.0	0.0	0.0	0.0	0.0	0.0
  P2	0.0	0.0	0.0	0.0	0.0	0.0	0.0	0.0	0.0	0.0
  P2	0.0	0.0	0.0	0.0	0.0	0.0	0.0	0.0	0.0	0.0
  P2	0.0	0.0	0.0	0.0	0.0	0.0	0.0	0.0	0.0	0.0
  P2	0.0	0.0	0.0	0.0	0.0	0.0	0.0	0.0	0.0	0.0
  P2	0.0	0.0	0.0	0.0	0.0	0.0	0.0	0.0	0.0	0.0
  P2	0.0	0.0	0.0	0.0	0.0	0.0	0.0	0.0	0.0	0.0
  P2	0.0	0.0	0.0	0.0	0.0	0.0	0.0	0.0	0.0	0.0
  P2	0.0	0.0	0.0	0.0	0.0	0.0	0.0	0.0	0.0	0.0
  P2	0.0	0.0	0.0	0.0	0.0	0.0	0.0	0.0	0.0	0.0
  P2	0.0	0.0	0.0	0.0	0.0	0.0	0.0	0.0	0.0	0.0
  P2	0.0	0.0	0.0	0.0	0.0	0.0	0.0	0.0	0.0	0.0
  P2	0.0	0.0	0.0	0.0	0.0	0.0	0.0	0.0	0.0	0.0
  P2	0.0	0.0	0.0	0.0	0.0	0.0	0.0	0.0	0.0	0.0
  P2	0.0	0.0	0.0	0.0	0.0	0.0	0.0	0.0	0.0	0.0
  P2	0.0	0.0	0.0	0.0	0.0	0.0	0.0	0.0	0.0	0.0
  P2	0.0	0.0	0.0	0.0	0.0	0.0	0.0	0.0	0.0	0.0
  P2	0.0	0.0	0.0	0.0	0.0	0.0	0.0	0.0	0.0	0.0
  P2	0.0	0.0	0.0	0.0	0.0	0.0	0.0	0.0	0.0	0.0
  P2	0.0	0.0	0.0	0.0	0.0	0.0	0.0	0.0	0.0	0.0
  P2	0.0	0.0	0.0	0.0	0.0	0.0	0.0	0.0	0.0	0.0
  P2	0.0	0.0	0.0	0.0	0.0	0.0	0.0	0.0	0.0	0.0
  P2	0.0	0.0	0.0	0.0	0.0	0.0	0.0	0.0	0.0	0.0
  P2	0.0	0.0	0.0	0.0	0.0	0.0	0.0	0.0	0.0	0.0
  P2	0.0	0.0	0.0	0.0	0.0	0.0	0.0	0.0	0.0	0.0
  P2	0.0	0.0	0.0	0.0	0.0	0.0	0.0	0.0	0.0	0.0
  P2	0.0	0.0	0.0	0.0	0.0	0.0	0.0	0.0	0.0	0.0
  P2	0.0	0.0	0.0	0.0	0.0	0.0	0.0	0.0	0.0	0.0
  P2	0.0	0.0	0.0	0.0	0.0	0.0	0.0	0.0	0.0	0.0
  P2	0.0	0.0	0.0	0.0	0.0	0.0	0.0	0.0	0.0	0.0
  P2	0.0	0.0	0.0	0.0	0.0	0.0	0.0	0.0	0.0	0.0
  P2	0.0	0.0	0.0	0.0	0.0	0.0	0.0	0.0	0.0	0.0
  P2	0.0	0.0	0.0	0.0	0.0	0.0	0.0	0.0	0.0	0.0
  P2	0.0	0.0	0.0	0.0	0.0	0.0	0.0	0.0	0.0	0.0
  P2	0.0	0.0	0.0	0.0	0.0	0.0	0.0	0.0	0.0	0.0
  P2	0.0	0.0	0.0	0.0	0.0	0.0	0.0	0.0	0.0	0.0
  P2	0.0	0.0	0.0	0.0	0.0	0.0	0.0	0.0	0.0	0.0
  P2	0.0	0.0	0.0	0.0	0.0	0.0	0.0	0.0	0.0	0.0
  P2	0.0	0.0	0.0	0.0	0.0	0.0	0.0	0.0	0.0	0.0
  P2	0.0	0.0	0.0	0.0	0.0	0.0	0.0	0.0	0.0	0.0
  P2	0.0	0.0	0.0	0.0	0.0	0.0	0.0	0.0	0.0	0.0
  P2	0.0	0.0	0.0	0.0	0.0	0.0	0.0	0.0	0.0	0.0
  P2	0.0	0.0	0.0	0.0	0.0	0.0	0.0	0.0	0.0	0.0
  P2	0.0	0.0	0.0	0.0	0.0	0.0	0.0	0.0	0.0	0.0
  P2	0.0	0.0	0.0	0.0	0.0	0.0	0.0	0.0	0.0	0.0
  P2	0.0	0.0	0.0	0.0	0.0	0.0	0.0	0.0	0.0	0.0
  P2	0.0	0.0	0.0	0.0	0.0	0.0	0.0	0.0	0.0	0.0
  P2	0.0	0.0	0.0	0.0	0.0	0.0	0.0	0.0	0.0	0.0
  P2	0.0	0.0	0.0	0.0	0.0	0.0	0.0	0.0	0.0	0.0
  P2	0.0	0.0	0.0	0.0	0.0	0.0	0.0	0.0	0.0	0.0
  P2	0.0	0.0	0.0	0.0	0.0	0.0	0.0	0.0	0.0	0.0
  P2	0.0	0.0	0.0	0.0	0.0	0.0	0.0	0.0	0.0	0.0
  P2	0.0	0.0	0.0	0.0	0.0	0.0	0.0	0.0	0.0	0.0
  P2	0.0	0.0	0.0	0.0	0.0	0.0	0.0	0.0	0.0	0.0
  P2	0.0	0.0	0.0	0.0	0.0	0.0	0.0	0.0	0.0	0.0
  P2	0.0	0.0	0.0	0.0	0.0	0.0	0.0	0.0	0.0	0.0
  P2	0.0	0.0	0.0	0.0	0.0	0.0	0.0	0.0	0.0	0.0
  P2	0.0	0.0	0.0	0.0	0.0	0.0	0.0	0.0	0.0	0.0
  P2	0.0	0.0	0.0	0.0	0.0	0.0	0.0	0.0	0.0	0.0
  P2	0.0	0.0	0.0	0.0	0.0	0.0	0.0	0.0	0.0	0.0
  P2	0.0	0.0	0.0	0.0	0.0	0.0	0.0	0.0	0.0	0.0
  P2	0.0	0.0	0.0	0.0	0.0	0.0	0.0	0.0	0.0	0.0
  P2	0.0	0.0	0.0	0.0	0.0	0.0	0.0	0.0	0.0	0.0
  P2	0.0	0.0	0.0	0.0	0.0	0.0	0.0	0.0	0.0	0.0
  P2	0.0	0.0	0.0	0.0	0.0	0.0	0.0	0.0	0.0	0.0
  P2	0.0	0.0	0.0	0.0	0.0	0.0	0.0	0.0	0.0	0.0
  P2	0.0	0.0	0.0	0.0	0.0	0.0	0.0	0.0	0.0	0.0
  P2	0.0	0.0	0.0	0.0	0.0	0.0	0.0	0.0	0.0	0.0
  P2	0.0	0.0	0.0	0.0	0.0	0.0	0.0	0.0	0.0	0.0
  P2	0.0	0.0	0.0	0.0	0.0	0.0	0.0	0.0	0.0	0.0
  P2	0.0	0.0	0.0	0.0	0.0	0.0	0.0	0.0	0.0	0.0
  P2	0.0	0.0	0.0	0.0	0.0	0.0	0.0	0.0	0.0	0.0
  P2	0.0	0.0	0.0	0.0	0.0	0.0	0.0	0.0	0.0	0.0
  P2	0.0	0.0	0.0	0.0	0.0	0.0	0.0	0.0	0.0	0.0
  P2	0.0	0.0	0.0	0.0	0.0	0.0	0.0	0.0	0.0	0.0
  P2	0.0	0.0	0.0	0.0	0.0	0.0	0.0	0.0	0.0	0.0
  P2	0.0	0.0	0.0	0.0	0.0	0.0	0.0	0.0	0.0	0.0
  P2	0.0	0.0	0.0	0.0	0.0	0.0	0.0	0.0	0.0	0.0
  P2	0.0	0.0	0.0	0.0	0.0	0.0	0.0	0.0	0.0	0.0
  P2	0.0	0.0	0.0	0.0	0.0	0.0	0.0	0.0	0.0	0.0
  P2	0.0	0.0	0.0	0.0	0.0	0.0	0.0	0.0	0.0	0.0
  P2	0.0	0.0	0.0	0.0	0.0	0.0	0.0	0.0	0.0	0.0
  P2	0.0	0.0	0.0	0.0	0.0	0.0	0.0	0.0	0.0	0.0
  P2	0.0	0.0	0.0	0.0	0.0	0.0	0.0	0.0	0.0	0.0
  P2	0.0	0.0	0.0	0.0	0.0	0.0	0.0	0.0	0.0	0.0
  P2	0.0	0.0	0.0	0.0	0.0	0.0	0.0	0.0	0.0	0.0
  P2	0.0	0.0	0.0	0.0	0.0	0.0	0.0	0.0	0.0	0.0
  P2	0.0	0.0	0.0	0.0	0.0	0.0	0.0	0.0	0.0	0.0
  P2	0.0	0.0	0.0	0.0	0.0	0.0	0.0	0.0	0.0	0.0
  P2	0.0	0.0	0.0	0.0	0.0	0.0	0.0	0.0	0.0	0.0
  P2	0.0	0.0	0.0	0.0	0.0	0.0	0.0	0.0	0.0	0.0
  P2	0.0	0.0	0.0	0.0	0.0	0.0	0.0	0.0	0.0	0.0
  P2	0.0	0.0	0.0	0.0	0.0	0.0	0.0	0.0	0.0	0.0
  P2	0.0	0.0	0.0	0.0	0.0	0.0	0.0	0.0	0.0	0.0
  P2	0.0	0.0	0.0	0.0	0.0	0.0	0.0	0.0	0.0	0.0
  P2	0.0	0.0	0.0	0.0	0.0	0.0	0.0	0.0	0.0	0.0
  P2	0.0	0.0	0.0	0.0	0.0	0.0	0.0	0.0	0.0	0.0
  P2	0.0	0.0	0.0	0.0	0.0	0.0	0.0	0.0	0.0	0.0
  P2	0.0	0.0	0.0	0.0	0.0	0.0	0.0	0.0	0.0	0.0
  P2	0.0	0.0	0.0	0.0	0.0	0.0	0.0	0.0	0.0	0.0
  P2	0.0	0.0	0.0	0.0	0.0	0.0	0.0	0.0	0.0	0.0
  P2	0.0	0.0	0.0	0.0	0.0	0.0	0.0	0.0	0.0	0.0
  P2	0.0	0.0	0.0	0.0	0.0	0.0	0.0	0.0	0.0	0.0
  P2	0.0	0.0	0.0	0.0	0.0	0.0	0.0	0.0	0.0	0.0
  P2	0.0	0.0	0.0	0.0	0.0	0.0	0.0	0.0	0.0	0.0
  P2	0.0	0.0	0.0	0.0	0.0	0.0	0.0	0.0	0.0	0.0
  P2	0.0	0.0	0.0	0.0	0.0	0.0	0.0	0.0	0.0	0.0
  P2	0.0	0.0	0.0	0.0	0.0	0.0	0.0	0.0	0.0	0.0
  P2	0.0	0.0	0.0	0.0	0.0	0.0	0.0	0.0	0.0	0.0
  P2	0.0	0.0	0.0	0.0	0.0	0.0	0.0	0.0	0.0	0.0
  P2	0.0	0.0	0.0	0.0	0.0	0.0	0.0	0.0	0.0	0.0
  P2	0.0	0.0	0.0	0.0	0.0	0.0	0.0	0.0	0.0	0.0
  P2	0.0	0.0	0.0	0.0	0.0	0.0	0.0	0.0	0.0	0.0
  P2	0.0	0.0	0.0	0.0	0.0	0.0	0.0	0.0	0.0	0.0
  P2	0.0	0.0	0.0	0.0	0.0	0.0	0.0	0.0	0.0	0.0
  P2	0.0	0.0	0.0	0.0	0.0	0.0	0.0	0.0	0.0	0.0
  P2	0.0	0.0	0.0	0.0	0.0	0.0	0.0	0.0	0.0	0.0
  P2	0.0	0.0	0.0	0.0	0.0	0.0	0.0	0.0	0.0	0.0
  P2	0.0	0.0	0.0	0.0	0.0	0.0	0.0	0.0	0.0	0.0
  P2	0.0	0.0	0.0	0.0	0.0	0.0	0.0	0.0	0.0	0.0
  P2	0.0	0.0	0.0	0.0	0.0	0.0	0.0	0.0	0.0	0.0
  P2	0.0	0.0	0.0	0.0	0.0	0.0	0.0	0.0	0.0	0.0
  P2	0.0	0.0	0.0	0.0	0.0	0.0	0.0	0.0	0.0	0.0
  P2	0.0	0.0	0.0	0.0	0.0	0.0	0.0	0.0	0.0	0.0
  P2	0.0	0.0	0.0	0.0	0.0	0.0	0.0	0.0	0.0	0.0
  P2	0.0	0.0	0.0	0.0	0.0	0.0	0.0	0.0	0.0	0.0
  P2	0.0	0.0	0.0	0.0	0.0	0.0	0.0	0.0	0.0	0.0
  P2	0.0	0.0	0.0	0.0	0.0	0.0	0.0	0.0	0.0	0.0
  P2	0.0	0.0	0.0	0.0	0.0	0.0	0.0	0.0	0.0	0.0
  P2	0.0	0.0	0.0	0.0	0.0	0.0	0.0	0.0	0.0	0.0
  P2	0.0	0.0	0.0	0.0	0.0	0.0	0.0	0.0	0.0	0.0
  P2	0.0	0.0	0.0	0.0	0.0	0.0	0.0	0.0	0.0	0.0
  P2	0.0	0.0	0.0	0.0	0.0	0.0	0.0	0.0	0.0	0.0
  P2	0.0	0.0	0.0	0.0	0.0	0.0	0.0	0.0	0.0	0.0
  P2	0.0	0.0	0.0	0.0	0.0	0.0	0.0	0.0	0.0	0.0
  P2	0.0	0.0	0.0	0.0	0.0	0.0	0.0	0.0	0.0	0.0
  P2	0.0	0.0	0.0	0.0	0.0	0.0	0.0	0.0	0.0	0.0
  P2	0.0	0.0	0.0	0.0	0.0	0.0	0.0	0.0	0.0	0.0
  P2	0.0	0.0	0.0	0.0	0.0	0.0	0.0	0.0	0.0	0.0
  P2	0.0	0.0	0.0	0.0	0.0	0.0	0.0	0.0	0.0	0.0
  P2	0.0	0.0	0.0	0.0	0.0	0.0	0.0	0.0	0.0	0.0
  P2	0.0	0.0	0.0	0.0	0.0	0.0	0.0	0.0	0.0	0.0
  P2	0.0	0.0	0.0	0.0	0.0	0.0	0.0	0.0	0.0	0.0
  P2	0.0	0.0	0.0	0.0	0.0	0.0	0.0	0.0	0.0	0.0
  P2	0.0	0.0	0.0	0.0	0.0	0.0	0.0	0.0	0.0	0.0
  P2	0.0	0.0	0.0	0.0	0.0	0.0	0.0	0.0	0.0	0.0
  P2	0.0	0.0	0.0	0.0	0.0	0.0	0.0	0.0	0.0	0.0
  P2	0.0	0.0	0.0	0.0	0.0	0.0	0.0	0.0	0.0	0.0
  P2	0.0	0.0	0.0	0.0	0.0	0.0	0.0	0.0	0.0	0.0
  P2	0.0	0.0	0.0	0.0	0.0	0.0	0.0	0.0	0.0	0.0
  P2	0.0	0.0	0.0	0.0	0.0	0.0	0.0	0.0	0.0	0.0
  P2	0.0	0.0	0.0	0.0	0.0	0.0	0.0	0.0	0.0	0.0
  P2	0.0	0.0	0.0	0.0	0.0	0.0	0.0	0.0	0.0	0.0
  P2	0.0	0.0	0.0	0.0	0.0	0.0	0.0	0.0	0.0	0.0
  P2	0.0	0.0	0.0	0.0	0.0	0.0	0.0	0.0	0.0	0.0
  P2	0.0	0.0	0.0	0.0	0.0	0.0	0.0	0.0	0.0	0.0
  P2	0.0	0.0	0.0	0.0	0.0	0.0	0.0	0.0	0.0	0.0
  P2	0.0	0.0	0.0	0.0	0.0	0.0	0.0	0.0	0.0	0.0
  P2	0.0	0.0	0.0	0.0	0.0	0.0	0.0	0.0	0.0	0.0
  P2	0.0	0.0	0.0	0.0	0.0	0.0	0.0	0.0	0.0	0.0
  P2	0.0	0.0	0.0	0.0	0.0	0.0	0.0	0.0	0.0	0.0
  P2	0.0	0.0	0.0	0.0	0.0	0.0	0.0	0.0	0.0	0.0
  P2	0.0	0.0	0.0	0.0	0.0	0.0	0.0	0.0	0.0	0.0
  P2	0.0	0.0	0.0	0.0	0.0	0.0	0.0	0.0	0.0	0.0
  P2	0.0	0.0	0.0	0.0	0.0	0.0	0.0	0.0	0.0	0.0
  P2	0.0	0.0	0.0	0.0	0.0	0.0	0.0	0.0	0.0	0.0
  P2	0.0	0.0	0.0	0.0	0.0	0.0	0.0	0.0	0.0	0.0
  P2	0.0	0.0	0.0	0.0	0.0	0.0	0.0	0.0	0.0	0.0
  P2	0.0	0.0	0.0	0.0	0.0	0.0	0.0	0.0	0.0	0.0
  P2	0.0	0.0	0.0	0.0	0.0	0.0	0.0	0.0	0.0	0.0
  P2	0.0	0.0	0.0	0.0	0.0	0.0	0.0	0.0	0.0	0.0
  P2	0.0	0.0	0.0	0.0	0.0	0.0	0.0	0.0	0.0	0.0
  P2	0.0	0.0	0.0	0.0	0.0	0.0	0.0	0.0	0.0	0.0
  P2	0.0	0.0	0.0	0.0	0.0	0.0	0.0	0.0	0.0	0.0
  P2	0.0	0.0	0.0	0.0	0.0	0.0	0.0	0.0	0.0	0.0
  P2	0.0	0.0	0.0	0.0	0.0	0.0	0.0	0.0	0.0	0.0
  P2	0.0	0.0	0.0	0.0	0.0	0.0	0.0	0.0	0.0	0.0
  P2	0.0	0.0	0.0	0.0	0.0	0.0	0.0	0.0	0.0	0.0
  P2	0.0	0.0	0.0	0.0	0.0	0.0	0.0	0.0	0.0	0.0
  P2	0.0	0.0	0.0	0.0	0.0	0.0	0.0	0.0	0.0	0.0
  P2	0.0	0.0	0.0	0.0	0.0	0.0	0.0	0.0	0.0	0.0
  P2	0.0	0.0	0.0	0.0	0.0	0.0	0.0	0.0	0.0	0.0
  P2	0.0	0.0	0.0	0.0	0.0	0.0	0.0	0.0	0.0	0.0
  P2	0.0	0.0	0.0	0.0	0.0	0.0	0.0	0.0	0.0	0.0
  P2	0.0	0.0	0.0	0.0	0.0	0.0	0.0	0.0	0.0	0.0
  P2	0.0	0.0	0.0	0.0	0.0	0.0	0.0	0.0	0.0	0.0
  P2	0.0	0.0	0.0	0.0	0.0	0.0	0.0	0.0	0.0	0.0
  P2	0.0	0.0	0.0	0.0	0.0	0.0	0.0	0.0	0.0	0.0
  P2	0.0	0.0	0.0	0.0	0.0	0.0	0.0	0.0	0.0	0.0
  P2	0.0	0.0	0.0	0.0	0.0	0.0	0.0	0.0	0.0	0.0
  P2	0.0	0.0	0.0	0.0	0.0	0.0	0.0	0.0	0.0	0.0
  P2	0.0	0.0	0.0	0.0	0.0	0.0	0.0	0.0	0.0	0.0
  P2	0.0	0.0	0.0	0.0	0.0	0.0	0.0	0.0	0.0	0.0
  P2	0.0	0.0	0.0	0.0	0.0	0.0	0.0	0.0	0.0	0.0
  P2	0.0	0.0	0.0	0.0	0.0	0.0	0.0	0.0	0.0	0.0
  P2	0.0	0.0	0.0	0.0	0.0	0.0	0.0	0.0	0.0	0.0
  P2	0.0	0.0	0.0	0.0	0.0	0.0	0.0	0.0	0.0	0.0
  P2	0.0	0.0	0.0	0.0	0.0	0.0	0.0	0.0	0.0	0.0
  P2	0.0	0.0	0.0	0.0	0.0	0.0	0.0	0.0	0.0	0.0
  P2	0.0	0.0	0.0	0.0	0.0	0.0	0.0	0.0	0.0	0.0
  P2	0.0	0.0	0.0	0.0	0.0	0.0	0.0	0.0	0.0	0.0
  P2	0.0	0.0	0.0	0.0	0.0	0.0	0.0	0.0	0.0	0.0
  P2	0.0	0.0	0.0	0.0	0.0	0.0	0.0	0.0	0.0	0.0
  P2	0.0	0.0	0.0	0.0	0.0	0.0	0.0	0.0	0.0	0.0
  P2	0.0	0.0	0.0	0.0	0.0	0.0	0.0	0.0	0.0	0.0
  P2	0.0	0.0	0.0	0.0	0.0	0.0	0.0	0.0	0.0	0.0
  P2	0.0	0.0	0.0	0.0	0.0	0.0	0.0	0.0	0.0	0.0
  P2	0.0	0.0	0.0	0.0	0.0	0.0	0.0	0.0	0.0	0.0
  P2	0.0	0.0	0.0	0.0	0.0	0.0	0.0	0.0	0.0	0.0
  P2	0.0	0.0	0.0	0.0	0.0	0.0	0.0	0.0	0.0	0.0
  P2	0.0	0.0	0.0	0.0	0.0	0.0	0.0	0.0	0.0	0.0
  P2	0.0	0.0	0.0	0.0	0.0	0.0	0.0	0.0	0.0	0.0
  P2	0.0	0.0	0.0	0.0	0.0	0.0	0.0	0.0	0.0	0.0
  P2	0.0	0.0	0.0	0.0	0.0	0.0	0.0	0.0	0.0	0.0
  P2	0.0	0.0	0.0	0.0	0.0	0.0	0.0	0.0	0.0	0.0
  P2	0.0	0.0	0.0	0.0	0.0	0.0	0.0	0.0	0.0	0.0
  P2	0.0	0.0	0.0	0.0	0.0	0.0	0.0	0.0	0.0	0.0
  P2	0.0	0.0	0.0	0.0	0.0	0.0	0.0	0.0	0.0	0.0
  P2	0.0	0.0	0.0	0.0	0.0	0.0	0.0	0.0	0.0	0.0
  P2	0.0	0.0	0.0	0.0	0.0	0.0	0.0	0.0	0.0	0.0
  P2	0.0	0.0	0.0	0.0	0.0	0.0	0.0	0.0	0.0	0.0
  P2	0.0	0.0	0.0	0.0	0.0	0.0	0.0	0.0	0.0	0.0
  P2	0.0	0.0	0.0	0.0	0.0	0.0	0.0	0.0	0.0	0.0
  P2	0.0	0.0	0.0	0.0	0.0	0.0	0.0	0.0	0.0	0.0
  P2	0.0	0.0	0.0	0.0	0.0	0.0	0.0	0.0	0.0	0.0
  P2	0.0	0.0	0.0	0.0	0.0	0.0	0.0	0.0	0.0	0.0
  P2	0.0	0.0	0.0	0.0	0.0	0.0	0.0	0.0	0.0	0.0
  P2	0.0	0.0	0.0	0.0	0.0	0.0	0.0	0.0	0.0	0.0
  P2	0.0	0.0	0.0	0.0	0.0	0.0	0.0	0.0	0.0	0.0
  P2	0.0	0.0	0.0	0.0	0.0	0.0	0.0	0.0	0.0	0.0
  P2	0.0	0.0	0.0	0.0	0.0	0.0	0.0	0.0	0.0	0.0
  P2	0.0	0.0	0.0	0.0	0.0	0.0	0.0	0.0	0.0	0.0
  P2	0.0	0.0	0.0	0.0	0.0	0.0	0.0	0.0	0.0	0.0
  P2	0.0	0.0	0.0	0.0	0.0	0.0	0.0	0.0	0.0	0.0
  P2	0.0	0.0	0.0	0.0	0.0	0.0	0.0	0.0	0.0	0.0
  P2	0.0	0.0	0.0	0.0	0.0	0.0	0.0	0.0	0.0	0.0
  P2	0.0	0.0	0.0	0.0	0.0	0.0	0.0	0.0	0.0	0.0
  P2	0.0	0.0	0.0	0.0	0.0	0.0	0.0	0.0	0.0	0.0
  P2	0.0	0.0	0.0	0.0	0.0	0.0	0.0	0.0	0.0	0.0
  P2	0.0	0.0	0.0	0.0	0.0	0.0	0.0	0.0	0.0	0.0
  P2	0.0	0.0	0.0	0.0	0.0	0.0	0.0	0.0	0.0	0.0
  P2	0.0	0.0	0.0	0.0	0.0	0.0	0.0	0.0	0.0	0.0
  P2	0.0	0.0	0.0	0.0	0.0	0.0	0.0	0.0	0.0	0.0
  P2	0.0	0.0	0.0	0.0	0.0	0.0	0.0	0.0	0.0	0.0
  P2	0.0	0.0	0.0	0.0	0.0	0.0	0.0	0.0	0.0	0.0
  P2	0.0	0.0	0.0	0.0	0.0	0.0	0.0	0.0	0.0	0.0
  P2	0.0	0.0	0.0	0.0	0.0	0.0	0.0	0.0	0.0	0.0
  P2	0.0	0.0	0.0	0.0	0.0	0.0	0.0	0.0	0.0	0.0
  P2	0.0	0.0	0.0	0.0	0.0	0.0	0.0	0.0	0.0	0.0
  P2	0.0	0.0	0.0	0.0	0.0	0.0	0.0	0.0	0.0	0.0
  P2	0.0	0.0	0.0	0.0	0.0	0.0	0.0	0.0	0.0	0.0
  P2	0.0	0.0	0.0	0.0	0.0	0.0	0.0	0.0	0.0	0.0
  P2	0.0	0.0	0.0	0.0	0.0	0.0	0.0	0.0	0.0	0.0
  P2	0.0	0.0	0.0	0.0	0.0	0.0	0.0	0.0	0.0	0.0
  P2	0.0	0.0	0.0	0.0	0.0	0.0	0.0	0.0	0.0	0.0
  P2	0.0	0.0	0.0	0.0	0.0	0.0	0.0	0.0	0.0	0.0
  P2	0.0	0.0	0.0	0.0	0.0	0.0	0.0	0.0	0.0	0.0
  P2	0.0	0.0	0.0	0.0	0.0	0.0	0.0	0.0	0.0	0.0
  P2	0.0	0.0	0.0	0.0	0.0	0.0	0.0	0.0	0.0	0.0
  P2	0.0	0.0	0.0	0.0	0.0	0.0	0.0	0.0	0.0	0.0
  P2	0.0	0.0	0.0	0.0	0.0	0.0	0.0	0.0	0.0	0.0
  P2	0.0	0.0	0.0	0.0	0.0	0.0	0.0	0.0	0.0	0.0
  P2	0.0	0.0	0.0	0.0	0.0	0.0	0.0	0.0	0.0	0.0
  P2	0.0	0.0	0.0	0.0	0.0	0.0	0.0	0.0	0.0	0.0
  P2	0.0	0.0	0.0	0.0	0.0	0.0	0.0	0.0	0.0	0.0
  P2	0.0	0.0	0.0	0.0	0.0	0.0	0.0	0.0	0.0	0.0
  P2	0.0	0.0	0.0	0.0	0.0	0.0	0.0	0.0	0.0	0.0
  P2	0.0	0.0	0.0	0.0	0.0	0.0	0.0	0.0	0.0	0.0
  P2	0.0	0.0	0.0	0.0	0.0	0.0	0.0	0.0	0.0	0.0
  P2	0.0	0.0	0.0	0.0	0.0	0.0	0.0	0.0	0.0	0.0
  P2	0.0	0.0	0.0	0.0	0.0	0.0	0.0	0.0	0.0	0.0
  P2	0.0	0.0	0.0	0.0	0.0	0.0	0.0	0.0	0.0	0.0
  P2	0.0	0.0	0.0	0.0	0.0	0.0	0.0	0.0	0.0	0.0
  P2	0.0	0.0	0.0	0.0	0.0	0.0	0.0	0.0	0.0	0.0
  P2	0.0	0.0	0.0	0.0	0.0	0.0	0.0	0.0	0.0	0.0
  P2	0.0	0.0	0.0	0.0	0.0	0.0	0.0	0.0	0.0	0.0
  P2	0.0	0.0	0.0	0.0	0.0	0.0	0.0	0.0	0.0	0.0
  P2	0.0	0.0	0.0	0.0	0.0	0.0	0.0	0.0	0.0	0.0
  P2	0.0	0.0	0.0	0.0	0.0	0.0	0.0	0.0	0.0	0.0
  P2	0.0	0.0	0.0	0.0	0.0	0.0	0.0	0.0	0.0	0.0
  P2	0.0	0.0	0.0	0.0	0.0	0.0	0.0	0.0	0.0	0.0
  P2	0.0	0.0	0.0	0.0	0.0	0.0	0.0	0.0	0.0	0.0
  P2	0.0	0.0	0.0	0.0	0.0	0.0	0.0	0.0	0.0	0.0
  P2	0.0	0.0	0.0	0.0	0.0	0.0	0.0	0.0	0.0	0.0
  P2	0.0	0.0	0.0	0.0	0.0	0.0	0.0	0.0	0.0	0.0
  P2	0.0	0.0	0.0	0.0	0.0	0.0	0.0	0.0	0.0	0.0
  P2	0.0	0.0	0.0	0.0	0.0	0.0	0.0	0.0	0.0	0.0
  P2	0.0	0.0	0.0	0.0	0.0	0.0	0.0	0.0	0.0	0.0
  P2	0.0	0.0	0.0	0.0	0.0	0.0	0.0	0.0	0.0	0.0
  P2	0.0	0.0	0.0	0.0	0.0	0.0	0.0	0.0	0.0	0.0
  P2	0.0	0.0	0.0	0.0	0.0	0.0	0.0	0.0	0.0	0.0
  P2	0.0	0.0	0.0	0.0	0.0	0.0	0.0	0.0	0.0	0.0
  P2	0.0	0.0	0.0	0.0	0.0	0.0	0.0	0.0	0.0	0.0
  P2	0.0	0.0	0.0	0.0	0.0	0.0	0.0	0.0	0.0	0.0
  P2	0.0	0.0	0.0	0.0	0.0	0.0	0.0	0.0	0.0	0.0
  P2	0.0	0.0	0.0	0.0	0.0	0.0	0.0	0.0	0.0	0.0
  P2	0.0	0.0	0.0	0.0	0.0	0.0	0.0	0.0	0.0	0.0
  P2	0.0	0.0	0.0	0.0	0.0	0.0	0.0	0.0	0.0	0.0
  P2	0.0	0.0	0.0	0.0	0.0	0.0	0.0	0.0	0.0	0.0
  P2	0.0	0.0	0.0	0.0	0.0	0.0	0.0	0.0	0.0	0.0
  P2	0.0	0.0	0.0	0.0	0.0	0.0	0.0	0.0	0.0	0.0
  P2	0.0	0.0	0.0	0.0	0.0	0.0	0.0	0.0	0.0	0.0
  P2	0.0	0.0	0.0	0.0	0.0	0.0	0.0	0.0	0.0	0.0
  P2	0.0	0.0	0.0	0.0	0.0	0.0	0.0	0.0	0.0	0.0
  P2	0.0	0.0	0.0	0.0	0.0	0.0	0.0	0.0	0.0	0.0
  P2	0.0	0.0	0.0	0.0	0.0	0.0	0.0	0.0	0.0	0.0
  P2	0.0	0.0	0.0	0.0	0.0	0.0	0.0	0.0	0.0	0.0
  P2	0.0	0.0	0.0	0.0	0.0	0.0	0.0	0.0	0.0	0.0
  P2	0.0	0.0	0.0	0.0	0.0	0.0	0.0	0.0	0.0	0.0
  P2	0.0	0.0	0.0	0.0	0.0	0.0	0.0	0.0	0.0	0.0
  P2	0.0	0.0	0.0	0.0	0.0	0.0	0.0	0.0	0.0	0.0
  P2	0.0	0.0	0.0	0.0	0.0	0.0	0.0	0.0	0.0	0.0
  P2	0.0	0.0	0.0	0.0	0.0	0.0	0.0	0.0	0.0	0.0
  P2	0.0	0.0	0.0	0.0	0.0	0.0	0.0	0.0	0.0	0.0
  P2	0.0	0.0	0.0	0.0	0.0	0.0	0.0	0.0	0.0	0.0
  P2	0.0	0.0	0.0	0.0	0.0	0.0	0.0	0.0	0.0	0.0
  P2	0.0	0.0	0.0	0.0	0.0	0.0	0.0	0.0	0.0	0.0
  P2	0.0	0.0	0.0	0.0	0.0	0.0	0.0	0.0	0.0	0.0
  P2	0.0	0.0	0.0	0.0	0.0	0.0	0.0	0.0	0.0	0.0
  P2	0.0	0.0	0.0	0.0	0.0	0.0	0.0	0.0	0.0	0.0
  P2	0.0	0.0	0.0	0.0	0.0	0.0	0.0	0.0	0.0	0.0
  P2	0.0	0.0	0.0	0.0	0.0	0.0	0.0	0.0	0.0	0.0
  P2	0.0	0.0	0.0	0.0	0.0	0.0	0.0	0.0	0.0	0.0
  P2	0.0	0.0	0.0	0.0	0.0	0.0	0.0	0.0	0.0	0.0
  P2	0.0	0.0	0.0	0.0	0.0	0.0	0.0	0.0	0.0	0.0
  P2	0.0	0.0	0.0	0.0	0.0	0.0	0.0	0.0	0.0	0.0
  P2	0.0	0.0	0.0	0.0	0.0	0.0	0.0	0.0	0.0	0.0
  P2	0.0	0.0	0.0	0.0	0.0	0.0	0.0	0.0	0.0	0.0
  P2	0.0	0.0	0.0	0.0	0.0	0.0	0.0	0.0	0.0	0.0
  P2	0.0	0.0	0.0	0.0	0.0	0.0	0.0	0.0	0.0	0.0
  P2	0.0	0.0	0.0	0.0	0.0	0.0	0.0	0.0	0.0	0.0
  P2	0.0	0.0	0.0	0.0	0.0	0.0	0.0	0.0	0.0	0.0
  P2	0.0	0.0	0.0	0.0	0.0	0.0	0.0	0.0	0.0	0.0
  P2	0.0	0.0	0.0	0.0	0.0	0.0	0.0	0.0	0.0	0.0
  P2	0.0	0.0	0.0	0.0	0.0	0.0	0.0	0.0	0.0	0.0

[REPORT]
  NODES		ALL	
  SPECIE		HOCL	YES	5	
  SPECIE		Nx	YES	6	
