[TITLE]
MSX Builder - Python Generated File

[OPTIONS]
  AREA_UNITS M2 			;Surface concentration is mass/m2
  RATE_UNITS MIN 			;Reaction rates are concen/sec
  SOLVER     RK5 			;5-th order Runge-Kutta integrator
  TIMESTEP   1 			;seconds
  COUPLING   NONE 			;Default NONE (???)
  RTOL       1e-12 			;Relative concentration tolerance
  ATOL       1e-12 			;Absolute concentration tolerance
  SEGMENTS   5000 			;Max # of segments per pipe: Default value is 5000
  PECLET     1000.0 			;default value is 1000 for Peclet Threshold for applying dispersion
  COMPILER   VC 			;

[SPECIES]
  BULK Nx         MG			;Nicotine
  BULK HOCL       MG			;Free Chlorine

[COEFFICIENTS]
  CONSTANT kd         0.00233			;Decay rate : min$^-$$^1$)
  CONSTANT K1         0.0592			;decay constant for chlorine: L (mg Nic)$^-$$^1$ min$^-$$^1$
  CONSTANT K2         0.184			;decay constant for nicotine: L (mg Cl)$^-$$^1$ min$^-$$^1$

[TERMS]
  RXCL		kd*HOCL + K1*Nx*HOCL			;
  RXN		K2*Nx*HOCL			;

[PIPES]
  RATE	Nx		-RXN			;
  RATE	HOCL		-RXCL			;

[TANKS]
  RATE	Nx		0			;
  RATE	HOCL		0			;

[SOURCES]
  CONCEN	17				HOCL		1.01						;
  CONCEN	InjPort				Nx		66.6161998			P2			;

[DIFFUSIVITY]
  Nx	100.0					;
  HOCL	1.0					;

[PARAMETERS]

[QUALITY]
  GLOBAL	HOCL				1.01			;

[PATTERNS]
  P2	1.0	1.0	1.0	1.0	1.0	1.0	1.0	1.0	1.0	1.0
  P2	1.0	1.0	1.0	1.0	1.0	1.0	1.0	1.0	1.0	1.0
  P2	1.0	1.0	1.0	1.0	1.0	1.0	1.0	1.0	1.0	1.0
  P2	1.0	1.0	1.0	1.0	1.0	1.0	1.0	1.0	1.0	1.0
  P2	1.0	1.0	1.0	1.0	1.0	1.0	1.0	1.0	1.0	1.0
  P2	1.0	1.0	1.0	1.0	1.0	1.0	1.0	1.0	1.0	1.0
  P2	1.0	1.0	1.0	1.0	1.0	1.0	1.0	1.0	1.0	1.0
  P2	1.0	1.0	1.0	1.0	1.0	1.0	1.0	1.0	1.0	1.0
  P2	1.0	1.0	1.0	1.0	1.0	1.0	1.0	1.0	1.0	1.0
  P2	1.0	1.0	1.0	1.0	1.0	1.0	1.0	1.0	1.0	1.0
  P2	1.0	1.0	1.0	1.0	1.0	1.0	1.0	1.0	1.0	1.0
  P2	1.0	1.0	1.0	1.0	1.0	1.0	1.0	1.0	1.0	1.0
  P2	1.0	1.0	1.0	1.0	1.0	1.0	1.0	1.0	1.0	1.0
  P2	1.0	1.0	1.0	1.0	1.0	1.0	1.0	1.0	1.0	1.0
  P2	1.0	1.0	1.0	1.0	1.0	1.0	1.0	1.0	1.0	1.0
  P2	1.0	1.0	1.0	1.0	1.0	1.0	1.0	1.0	1.0	1.0
  P2	1.0	1.0	1.0	1.0	1.0	1.0	1.0	1.0	1.0	1.0
  P2	1.0	1.0	1.0	1.0	1.0	1.0	1.0	1.0	1.0	1.0
  P2	1.0	1.0	1.0	1.0	1.0	1.0	1.0	1.0	1.0	1.0
  P2	1.0	1.0	1.0	1.0	1.0	1.0	1.0	1.0	1.0	1.0
  P2	1.0	1.0	1.0	1.0	1.0	1.0	1.0	1.0	1.0	1.0
  P2	1.0	1.0	1.0	1.0	1.0	1.0	1.0	1.0	1.0	1.0
  P2	1.0	1.0	1.0	1.0	1.0	1.0	1.0	1.0	1.0	1.0
  P2	1.0	1.0	1.0	1.0	1.0	1.0	1.0	1.0	1.0	1.0
  P2	1.0	1.0	1.0	1.0	1.0	1.0	1.0	1.0	1.0	1.0
  P2	1.0	1.0	1.0	1.0	1.0	1.0	1.0	1.0	1.0	1.0
  P2	1.0	1.0	1.0	1.0	1.0	1.0	1.0	1.0	1.0	1.0
  P2	1.0	1.0	1.0	1.0	1.0	1.0	1.0	1.0	1.0	1.0
  P2	1.0	1.0	1.0	1.0	1.0	1.0	1.0	1.0	1.0	1.0
  P2	1.0	1.0	1.0	1.0	1.0	1.0	1.0	1.0	1.0	1.0
  P2	1.0	1.0	1.0	1.0	1.0	1.0	1.0	1.0	1.0	1.0
  P2	1.0	1.0	1.0	1.0	1.0	1.0	1.0	1.0	1.0	1.0
  P2	1.0	1.0	1.0	1.0	1.0	1.0	1.0	1.0	1.0	1.0
  P2	1.0	1.0	1.0	1.0	1.0	1.0	1.0	1.0	1.0	1.0
  P2	1.0	1.0	1.0	1.0	1.0	1.0	1.0	1.0	1.0	1.0
  P2	1.0	1.0	1.0	1.0	1.0	1.0	1.0	1.0	1.0	1.0
  P2	1.0	1.0	1.0	1.0	1.0	1.0	1.0	1.0	1.0	1.0
  P2	1.0	1.0	1.0	1.0	1.0	1.0	1.0	1.0	1.0	1.0
  P2	1.0	1.0	1.0	1.0	1.0	1.0	1.0	1.0	1.0	1.0
  P2	1.0	1.0	1.0	1.0	1.0	1.0	1.0	1.0	1.0	1.0
  P2	1.0	1.0	1.0	1.0	1.0	1.0	1.0	1.0	1.0	1.0
  P2	1.0	1.0	1.0	1.0	1.0	1.0	1.0	1.0	1.0	1.0
  P2	1.0	1.0	1.0	1.0	1.0	1.0	1.0	1.0	1.0	1.0
  P2	1.0	1.0	1.0	1.0	1.0	1.0	1.0	1.0	1.0	1.0
  P2	1.0	1.0	1.0	1.0	1.0	1.0	1.0	1.0	1.0	1.0
  P2	1.0	1.0	1.0	1.0	1.0	1.0	1.0	1.0	1.0	1.0
  P2	1.0	1.0	1.0	1.0	1.0	1.0	1.0	1.0	1.0	1.0
  P2	1.0	1.0	1.0	1.0	1.0	1.0	1.0	1.0	1.0	1.0
  P2	1.0	1.0	1.0	1.0	1.0	1.0	1.0	1.0	1.0	1.0
  P2	1.0	1.0	1.0	1.0	1.0	1.0	1.0	1.0	1.0	1.0
  P2	1.0	1.0	1.0	1.0	1.0	1.0	1.0	1.0	1.0	1.0
  P2	1.0	1.0	1.0	1.0	1.0	1.0	1.0	1.0	1.0	1.0
  P2	1.0	1.0	1.0	1.0	1.0	1.0	1.0	1.0	1.0	1.0
  P2	1.0	1.0	1.0	1.0	1.0	1.0	1.0	1.0	1.0	1.0
  P2	1.0	1.0	1.0	1.0	1.0	1.0	1.0	1.0	1.0	1.0
  P2	1.0	1.0	1.0	1.0	1.0	1.0	1.0	1.0	1.0	1.0
  P2	1.0	1.0	1.0	1.0	1.0	1.0	1.0	1.0	1.0	1.0
  P2	1.0	1.0	1.0	1.0	1.0	1.0	1.0	1.0	1.0	1.0
  P2	1.0	1.0	1.0	1.0	1.0	1.0	1.0	1.0	1.0	1.0
  P2	1.0	1.0	1.0	1.0	1.0	1.0	1.0	1.0	1.0	1.0
  P2	0.0	0.0	0.0	0.0	0.0	0.0	0.0	0.0	0.0	0.0
  P2	0.0	0.0	0.0	0.0	0.0	0.0	0.0	0.0	0.0	0.0
  P2	0.0	0.0	0.0	0.0	0.0	0.0	0.0	0.0	0.0	0.0
  P2	0.0	0.0	0.0	0.0	0.0	0.0	0.0	0.0	0.0	0.0
  P2	0.0	0.0	0.0	0.0	0.0	0.0	0.0	0.0	0.0	0.0
  P2	0.0	0.0	0.0	0.0	0.0	0.0	0.0	0.0	0.0	0.0
  P2	0.0	0.0	0.0	0.0	0.0	0.0	0.0	0.0	0.0	0.0
  P2	0.0	0.0	0.0	0.0	0.0	0.0	0.0	0.0	0.0	0.0
  P2	0.0	0.0	0.0	0.0	0.0	0.0	0.0	0.0	0.0	0.0
  P2	0.0	0.0	0.0	0.0	0.0	0.0	0.0	0.0	0.0	0.0
  P2	0.0	0.0	0.0	0.0	0.0	0.0	0.0	0.0	0.0	0.0
  P2	0.0	0.0	0.0	0.0	0.0	0.0	0.0	0.0	0.0	0.0
  P2	0.0	0.0	0.0	0.0	0.0	0.0	0.0	0.0	0.0	0.0
  P2	0.0	0.0	0.0	0.0	0.0	0.0	0.0	0.0	0.0	0.0
  P2	0.0	0.0	0.0	0.0	0.0	0.0	0.0	0.0	0.0	0.0
  P2	0.0	0.0	0.0	0.0	0.0	0.0	0.0	0.0	0.0	0.0
  P2	0.0	0.0	0.0	0.0	0.0	0.0	0.0	0.0	0.0	0.0
  P2	0.0	0.0	0.0	0.0	0.0	0.0	0.0	0.0	0.0	0.0
  P2	0.0	0.0	0.0	0.0	0.0	0.0	0.0	0.0	0.0	0.0
  P2	0.0	0.0	0.0	0.0	0.0	0.0	0.0	0.0	0.0	0.0
  P2	0.0	0.0	0.0	0.0	0.0	0.0	0.0	0.0	0.0	0.0
  P2	0.0	0.0	0.0	0.0	0.0	0.0	0.0	0.0	0.0	0.0
  P2	0.0	0.0	0.0	0.0	0.0	0.0	0.0	0.0	0.0	0.0
  P2	0.0	0.0	0.0	0.0	0.0	0.0	0.0	0.0	0.0	0.0
  P2	0.0	0.0	0.0	0.0	0.0	0.0	0.0	0.0	0.0	0.0
  P2	0.0	0.0	0.0	0.0	0.0	0.0	0.0	0.0	0.0	0.0
  P2	0.0	0.0	0.0	0.0	0.0	0.0	0.0	0.0	0.0	0.0
  P2	0.0	0.0	0.0	0.0	0.0	0.0	0.0	0.0	0.0	0.0
  P2	0.0	0.0	0.0	0.0	0.0	0.0	0.0	0.0	0.0	0.0
  P2	0.0	0.0	0.0	0.0	0.0	0.0	0.0	0.0	0.0	0.0
  P2	0.0	0.0	0.0	0.0	0.0	0.0	0.0	0.0	0.0	0.0
  P2	0.0	0.0	0.0	0.0	0.0	0.0	0.0	0.0	0.0	0.0
  P2	0.0	0.0	0.0	0.0	0.0	0.0	0.0	0.0	0.0	0.0
  P2	0.0	0.0	0.0	0.0	0.0	0.0	0.0	0.0	0.0	0.0
  P2	0.0	0.0	0.0	0.0	0.0	0.0	0.0	0.0	0.0	0.0
  P2	0.0	0.0	0.0	0.0	0.0	0.0	0.0	0.0	0.0	0.0
  P2	0.0	0.0	0.0	0.0	0.0	0.0	0.0	0.0	0.0	0.0
  P2	0.0	0.0	0.0	0.0	0.0	0.0	0.0	0.0	0.0	0.0
  P2	0.0	0.0	0.0	0.0	0.0	0.0	0.0	0.0	0.0	0.0
  P2	0.0	0.0	0.0	0.0	0.0	0.0	0.0	0.0	0.0	0.0
  P2	0.0	0.0	0.0	0.0	0.0	0.0	0.0	0.0	0.0	0.0
  P2	0.0	0.0	0.0	0.0	0.0	0.0	0.0	0.0	0.0	0.0
  P2	0.0	0.0	0.0	0.0	0.0	0.0	0.0	0.0	0.0	0.0
  P2	0.0	0.0	0.0	0.0	0.0	0.0	0.0	0.0	0.0	0.0
  P2	0.0	0.0	0.0	0.0	0.0	0.0	0.0	0.0	0.0	0.0
  P2	0.0	0.0	0.0	0.0	0.0	0.0	0.0	0.0	0.0	0.0
  P2	0.0	0.0	0.0	0.0	0.0	0.0	0.0	0.0	0.0	0.0
  P2	0.0	0.0	0.0	0.0	0.0	0.0	0.0	0.0	0.0	0.0
  P2	0.0	0.0	0.0	0.0	0.0	0.0	0.0	0.0	0.0	0.0
  P2	0.0	0.0	0.0	0.0	0.0	0.0	0.0	0.0	0.0	0.0
  P2	0.0	0.0	0.0	0.0	0.0	0.0	0.0	0.0	0.0	0.0
  P2	0.0	0.0	0.0	0.0	0.0	0.0	0.0	0.0	0.0	0.0
  P2	0.0	0.0	0.0	0.0	0.0	0.0	0.0	0.0	0.0	0.0
  P2	0.0	0.0	0.0	0.0	0.0	0.0	0.0	0.0	0.0	0.0
  P2	0.0	0.0	0.0	0.0	0.0	0.0	0.0	0.0	0.0	0.0
  P2	0.0	0.0	0.0	0.0	0.0	0.0	0.0	0.0	0.0	0.0
  P2	0.0	0.0	0.0	0.0	0.0	0.0	0.0	0.0	0.0	0.0
  P2	0.0	0.0	0.0	0.0	0.0	0.0	0.0	0.0	0.0	0.0
  P2	0.0	0.0	0.0	0.0	0.0	0.0	0.0	0.0	0.0	0.0
  P2	0.0	0.0	0.0	0.0	0.0	0.0	0.0	0.0	0.0	0.0
  P2	0.0	0.0	0.0	0.0	0.0	0.0	0.0	0.0	0.0	0.0
  P2	0.0	0.0	0.0	0.0	0.0	0.0	0.0	0.0	0.0	0.0
  P2	0.0	0.0	0.0	0.0	0.0	0.0	0.0	0.0	0.0	0.0
  P2	0.0	0.0	0.0	0.0	0.0	0.0	0.0	0.0	0.0	0.0
  P2	0.0	0.0	0.0	0.0	0.0	0.0	0.0	0.0	0.0	0.0
  P2	0.0	0.0	0.0	0.0	0.0	0.0	0.0	0.0	0.0	0.0
  P2	0.0	0.0	0.0	0.0	0.0	0.0	0.0	0.0	0.0	0.0
  P2	0.0	0.0	0.0	0.0	0.0	0.0	0.0	0.0	0.0	0.0
  P2	0.0	0.0	0.0	0.0	0.0	0.0	0.0	0.0	0.0	0.0
  P2	0.0	0.0	0.0	0.0	0.0	0.0	0.0	0.0	0.0	0.0
  P2	0.0	0.0	0.0	0.0	0.0	0.0	0.0	0.0	0.0	0.0
  P2	0.0	0.0	0.0	0.0	0.0	0.0	0.0	0.0	0.0	0.0
  P2	0.0	0.0	0.0	0.0	0.0	0.0	0.0	0.0	0.0	0.0
  P2	0.0	0.0	0.0	0.0	0.0	0.0	0.0	0.0	0.0	0.0
  P2	0.0	0.0	0.0	0.0	0.0	0.0	0.0	0.0	0.0	0.0
  P2	0.0	0.0	0.0	0.0	0.0	0.0	0.0	0.0	0.0	0.0
  P2	0.0	0.0	0.0	0.0	0.0	0.0	0.0	0.0	0.0	0.0
  P2	0.0	0.0	0.0	0.0	0.0	0.0	0.0	0.0	0.0	0.0
  P2	0.0	0.0	0.0	0.0	0.0	0.0	0.0	0.0	0.0	0.0
  P2	0.0	0.0	0.0	0.0	0.0	0.0	0.0	0.0	0.0	0.0
  P2	0.0	0.0	0.0	0.0	0.0	0.0	0.0	0.0	0.0	0.0
  P2	0.0	0.0	0.0	0.0	0.0	0.0	0.0	0.0	0.0	0.0
  P2	0.0	0.0	0.0	0.0	0.0	0.0	0.0	0.0	0.0	0.0
  P2	0.0	0.0	0.0	0.0	0.0	0.0	0.0	0.0	0.0	0.0
  P2	0.0	0.0	0.0	0.0	0.0	0.0	0.0	0.0	0.0	0.0
  P2	0.0	0.0	0.0	0.0	0.0	0.0	0.0	0.0	0.0	0.0
  P2	0.0	0.0	0.0	0.0	0.0	0.0	0.0	0.0	0.0	0.0
  P2	0.0	0.0	0.0	0.0	0.0	0.0	0.0	0.0	0.0	0.0
  P2	0.0	0.0	0.0	0.0	0.0	0.0	0.0	0.0	0.0	0.0
  P2	0.0	0.0	0.0	0.0	0.0	0.0	0.0	0.0	0.0	0.0
  P2	0.0	0.0	0.0	0.0	0.0	0.0	0.0	0.0	0.0	0.0
  P2	0.0	0.0	0.0	0.0	0.0	0.0	0.0	0.0	0.0	0.0
  P2	0.0	0.0	0.0	0.0	0.0	0.0	0.0	0.0	0.0	0.0
  P2	0.0	0.0	0.0	0.0	0.0	0.0	0.0	0.0	0.0	0.0
  P2	0.0	0.0	0.0	0.0	0.0	0.0	0.0	0.0	0.0	0.0
  P2	0.0	0.0	0.0	0.0	0.0	0.0	0.0	0.0	0.0	0.0
  P2	0.0	0.0	0.0	0.0	0.0	0.0	0.0	0.0	0.0	0.0
  P2	0.0	0.0	0.0	0.0	0.0	0.0	0.0	0.0	0.0	0.0
  P2	0.0	0.0	0.0	0.0	0.0	0.0	0.0	0.0	0.0	0.0
  P2	0.0	0.0	0.0	0.0	0.0	0.0	0.0	0.0	0.0	0.0
  P2	0.0	0.0	0.0	0.0	0.0	0.0	0.0	0.0	0.0	0.0
  P2	0.0	0.0	0.0	0.0	0.0	0.0	0.0	0.0	0.0	0.0
  P2	0.0	0.0	0.0	0.0	0.0	0.0	0.0	0.0	0.0	0.0
  P2	0.0	0.0	0.0	0.0	0.0	0.0	0.0	0.0	0.0	0.0
  P2	0.0	0.0	0.0	0.0	0.0	0.0	0.0	0.0	0.0	0.0
  P2	0.0	0.0	0.0	0.0	0.0	0.0	0.0	0.0	0.0	0.0
  P2	0.0	0.0	0.0	0.0	0.0	0.0	0.0	0.0	0.0	0.0
  P2	0.0	0.0	0.0	0.0	0.0	0.0	0.0	0.0	0.0	0.0
  P2	0.0	0.0	0.0	0.0	0.0	0.0	0.0	0.0	0.0	0.0
  P2	0.0	0.0	0.0	0.0	0.0	0.0	0.0	0.0	0.0	0.0
  P2	0.0	0.0	0.0	0.0	0.0	0.0	0.0	0.0	0.0	0.0
  P2	0.0	0.0	0.0	0.0	0.0	0.0	0.0	0.0	0.0	0.0
  P2	0.0	0.0	0.0	0.0	0.0	0.0	0.0	0.0	0.0	0.0
  P2	0.0	0.0	0.0	0.0	0.0	0.0	0.0	0.0	0.0	0.0
  P2	0.0	0.0	0.0	0.0	0.0	0.0	0.0	0.0	0.0	0.0
  P2	0.0	0.0	0.0	0.0	0.0	0.0	0.0	0.0	0.0	0.0
  P2	0.0	0.0	0.0	0.0	0.0	0.0	0.0	0.0	0.0	0.0
  P2	0.0	0.0	0.0	0.0	0.0	0.0	0.0	0.0	0.0	0.0
  P2	0.0	0.0	0.0	0.0	0.0	0.0	0.0	0.0	0.0	0.0
  P2	0.0	0.0	0.0	0.0	0.0	0.0	0.0	0.0	0.0	0.0
  P2	0.0	0.0	0.0	0.0	0.0	0.0	0.0	0.0	0.0	0.0
  P2	0.0	0.0	0.0	0.0	0.0	0.0	0.0	0.0	0.0	0.0
  P2	0.0	0.0	0.0	0.0	0.0	0.0	0.0	0.0	0.0	0.0
  P2	0.0	0.0	0.0	0.0	0.0	0.0	0.0	0.0	0.0	0.0
  P2	0.0	0.0	0.0	0.0	0.0	0.0	0.0	0.0	0.0	0.0
  P2	0.0	0.0	0.0	0.0	0.0	0.0	0.0	0.0	0.0	0.0
  P2	0.0	0.0	0.0	0.0	0.0	0.0	0.0	0.0	0.0	0.0
  P2	0.0	0.0	0.0	0.0	0.0	0.0	0.0	0.0	0.0	0.0
  P2	0.0	0.0	0.0	0.0	0.0	0.0	0.0	0.0	0.0	0.0
  P2	0.0	0.0	0.0	0.0	0.0	0.0	0.0	0.0	0.0	0.0
  P2	0.0	0.0	0.0	0.0	0.0	0.0	0.0	0.0	0.0	0.0
  P2	0.0	0.0	0.0	0.0	0.0	0.0	0.0	0.0	0.0	0.0
  P2	0.0	0.0	0.0	0.0	0.0	0.0	0.0	0.0	0.0	0.0
  P2	0.0	0.0	0.0	0.0	0.0	0.0	0.0	0.0	0.0	0.0
  P2	0.0	0.0	0.0	0.0	0.0	0.0	0.0	0.0	0.0	0.0
  P2	0.0	0.0	0.0	0.0	0.0	0.0	0.0	0.0	0.0	0.0
  P2	0.0	0.0	0.0	0.0	0.0	0.0	0.0	0.0	0.0	0.0
  P2	0.0	0.0	0.0	0.0	0.0	0.0	0.0	0.0	0.0	0.0
  P2	0.0	0.0	0.0	0.0	0.0	0.0	0.0	0.0	0.0	0.0
  P2	0.0	0.0	0.0	0.0	0.0	0.0	0.0	0.0	0.0	0.0
  P2	0.0	0.0	0.0	0.0	0.0	0.0	0.0	0.0	0.0	0.0
  P2	0.0	0.0	0.0	0.0	0.0	0.0	0.0	0.0	0.0	0.0
  P2	0.0	0.0	0.0	0.0	0.0	0.0	0.0	0.0	0.0	0.0
  P2	0.0	0.0	0.0	0.0	0.0	0.0	0.0	0.0	0.0	0.0
  P2	0.0	0.0	0.0	0.0	0.0	0.0	0.0	0.0	0.0	0.0
  P2	0.0	0.0	0.0	0.0	0.0	0.0	0.0	0.0	0.0	0.0
  P2	0.0	0.0	0.0	0.0	0.0	0.0	0.0	0.0	0.0	0.0
  P2	0.0	0.0	0.0	0.0	0.0	0.0	0.0	0.0	0.0	0.0
  P2	0.0	0.0	0.0	0.0	0.0	0.0	0.0	0.0	0.0	0.0
  P2	0.0	0.0	0.0	0.0	0.0	0.0	0.0	0.0	0.0	0.0
  P2	0.0	0.0	0.0	0.0	0.0	0.0	0.0	0.0	0.0	0.0
  P2	0.0	0.0	0.0	0.0	0.0	0.0	0.0	0.0	0.0	0.0
  P2	0.0	0.0	0.0	0.0	0.0	0.0	0.0	0.0	0.0	0.0
  P2	0.0	0.0	0.0	0.0	0.0	0.0	0.0	0.0	0.0	0.0
  P2	0.0	0.0	0.0	0.0	0.0	0.0	0.0	0.0	0.0	0.0
  P2	0.0	0.0	0.0	0.0	0.0	0.0	0.0	0.0	0.0	0.0
  P2	0.0	0.0	0.0	0.0	0.0	0.0	0.0	0.0	0.0	0.0
  P2	0.0	0.0	0.0	0.0	0.0	0.0	0.0	0.0	0.0	0.0
  P2	0.0	0.0	0.0	0.0	0.0	0.0	0.0	0.0	0.0	0.0
  P2	0.0	0.0	0.0	0.0	0.0	0.0	0.0	0.0	0.0	0.0
  P2	0.0	0.0	0.0	0.0	0.0	0.0	0.0	0.0	0.0	0.0
  P2	0.0	0.0	0.0	0.0	0.0	0.0	0.0	0.0	0.0	0.0
  P2	0.0	0.0	0.0	0.0	0.0	0.0	0.0	0.0	0.0	0.0
  P2	0.0	0.0	0.0	0.0	0.0	0.0	0.0	0.0	0.0	0.0
  P2	0.0	0.0	0.0	0.0	0.0	0.0	0.0	0.0	0.0	0.0
  P2	0.0	0.0	0.0	0.0	0.0	0.0	0.0	0.0	0.0	0.0
  P2	0.0	0.0	0.0	0.0	0.0	0.0	0.0	0.0	0.0	0.0
  P2	0.0	0.0	0.0	0.0	0.0	0.0	0.0	0.0	0.0	0.0
  P2	0.0	0.0	0.0	0.0	0.0	0.0	0.0	0.0	0.0	0.0
  P2	0.0	0.0	0.0	0.0	0.0	0.0	0.0	0.0	0.0	0.0
  P2	0.0	0.0	0.0	0.0	0.0	0.0	0.0	0.0	0.0	0.0
  P2	0.0	0.0	0.0	0.0	0.0	0.0	0.0	0.0	0.0	0.0
  P2	0.0	0.0	0.0	0.0	0.0	0.0	0.0	0.0	0.0	0.0
  P2	0.0	0.0	0.0	0.0	0.0	0.0	0.0	0.0	0.0	0.0
  P2	0.0	0.0	0.0	0.0	0.0	0.0	0.0	0.0	0.0	0.0
  P2	0.0	0.0	0.0	0.0	0.0	0.0	0.0	0.0	0.0	0.0
  P2	0.0	0.0	0.0	0.0	0.0	0.0	0.0	0.0	0.0	0.0
  P2	0.0	0.0	0.0	0.0	0.0	0.0	0.0	0.0	0.0	0.0
  P2	0.0	0.0	0.0	0.0	0.0	0.0	0.0	0.0	0.0	0.0
  P2	0.0	0.0	0.0	0.0	0.0	0.0	0.0	0.0	0.0	0.0
  P2	0.0	0.0	0.0	0.0	0.0	0.0	0.0	0.0	0.0	0.0
  P2	0.0	0.0	0.0	0.0	0.0	0.0	0.0	0.0	0.0	0.0
  P2	0.0	0.0	0.0	0.0	0.0	0.0	0.0	0.0	0.0	0.0
  P2	0.0	0.0	0.0	0.0	0.0	0.0	0.0	0.0	0.0	0.0
  P2	0.0	0.0	0.0	0.0	0.0	0.0	0.0	0.0	0.0	0.0
  P2	0.0	0.0	0.0	0.0	0.0	0.0	0.0	0.0	0.0	0.0
  P2	0.0	0.0	0.0	0.0	0.0	0.0	0.0	0.0	0.0	0.0
  P2	0.0	0.0	0.0	0.0	0.0	0.0	0.0	0.0	0.0	0.0
  P2	0.0	0.0	0.0	0.0	0.0	0.0	0.0	0.0	0.0	0.0
  P2	0.0	0.0	0.0	0.0	0.0	0.0	0.0	0.0	0.0	0.0
  P2	0.0	0.0	0.0	0.0	0.0	0.0	0.0	0.0	0.0	0.0
  P2	0.0	0.0	0.0	0.0	0.0	0.0	0.0	0.0	0.0	0.0
  P2	0.0	0.0	0.0	0.0	0.0	0.0	0.0	0.0	0.0	0.0
  P2	0.0	0.0	0.0	0.0	0.0	0.0	0.0	0.0	0.0	0.0
  P2	0.0	0.0	0.0	0.0	0.0	0.0	0.0	0.0	0.0	0.0
  P2	0.0	0.0	0.0	0.0	0.0	0.0	0.0	0.0	0.0	0.0
  P2	0.0	0.0	0.0	0.0	0.0	0.0	0.0	0.0	0.0	0.0
  P2	0.0	0.0	0.0	0.0	0.0	0.0	0.0	0.0	0.0	0.0
  P2	0.0	0.0	0.0	0.0	0.0	0.0	0.0	0.0	0.0	0.0
  P2	0.0	0.0	0.0	0.0	0.0	0.0	0.0	0.0	0.0	0.0
  P2	0.0	0.0	0.0	0.0	0.0	0.0	0.0	0.0	0.0	0.0
  P2	0.0	0.0	0.0	0.0	0.0	0.0	0.0	0.0	0.0	0.0
  P2	0.0	0.0	0.0	0.0	0.0	0.0	0.0	0.0	0.0	0.0
  P2	0.0	0.0	0.0	0.0	0.0	0.0	0.0	0.0	0.0	0.0
  P2	0.0	0.0	0.0	0.0	0.0	0.0	0.0	0.0	0.0	0.0
  P2	0.0	0.0	0.0	0.0	0.0	0.0	0.0	0.0	0.0	0.0
  P2	0.0	0.0	0.0	0.0	0.0	0.0	0.0	0.0	0.0	0.0
  P2	0.0	0.0	0.0	0.0	0.0	0.0	0.0	0.0	0.0	0.0
  P2	0.0	0.0	0.0	0.0	0.0	0.0	0.0	0.0	0.0	0.0
  P2	0.0	0.0	0.0	0.0	0.0	0.0	0.0	0.0	0.0	0.0
  P2	0.0	0.0	0.0	0.0	0.0	0.0	0.0	0.0	0.0	0.0
  P2	0.0	0.0	0.0	0.0	0.0	0.0	0.0	0.0	0.0	0.0
  P2	0.0	0.0	0.0	0.0	0.0	0.0	0.0	0.0	0.0	0.0
  P2	0.0	0.0	0.0	0.0	0.0	0.0	0.0	0.0	0.0	0.0
  P2	0.0	0.0	0.0	0.0	0.0	0.0	0.0	0.0	0.0	0.0
  P2	0.0	0.0	0.0	0.0	0.0	0.0	0.0	0.0	0.0	0.0
  P2	0.0	0.0	0.0	0.0	0.0	0.0	0.0	0.0	0.0	0.0
  P2	0.0	0.0	0.0	0.0	0.0	0.0	0.0	0.0	0.0	0.0
  P2	0.0	0.0	0.0	0.0	0.0	0.0	0.0	0.0	0.0	0.0
  P2	0.0	0.0	0.0	0.0	0.0	0.0	0.0	0.0	0.0	0.0
  P2	0.0	0.0	0.0	0.0	0.0	0.0	0.0	0.0	0.0	0.0
  P2	0.0	0.0	0.0	0.0	0.0	0.0	0.0	0.0	0.0	0.0
  P2	0.0	0.0	0.0	0.0	0.0	0.0	0.0	0.0	0.0	0.0
  P2	0.0	0.0	0.0	0.0	0.0	0.0	0.0	0.0	0.0	0.0
  P2	0.0	0.0	0.0	0.0	0.0	0.0	0.0	0.0	0.0	0.0
  P2	0.0	0.0	0.0	0.0	0.0	0.0	0.0	0.0	0.0	0.0
  P2	0.0	0.0	0.0	0.0	0.0	0.0	0.0	0.0	0.0	0.0
  P2	0.0	0.0	0.0	0.0	0.0	0.0	0.0	0.0	0.0	0.0
  P2	0.0	0.0	0.0	0.0	0.0	0.0	0.0	0.0	0.0	0.0
  P2	0.0	0.0	0.0	0.0	0.0	0.0	0.0	0.0	0.0	0.0
  P2	0.0	0.0	0.0	0.0	0.0	0.0	0.0	0.0	0.0	0.0
  P2	0.0	0.0	0.0	0.0	0.0	0.0	0.0	0.0	0.0	0.0
  P2	0.0	0.0	0.0	0.0	0.0	0.0	0.0	0.0	0.0	0.0
  P2	0.0	0.0	0.0	0.0	0.0	0.0	0.0	0.0	0.0	0.0
  P2	0.0	0.0	0.0	0.0	0.0	0.0	0.0	0.0	0.0	0.0
  P2	0.0	0.0	0.0	0.0	0.0	0.0	0.0	0.0	0.0	0.0
  P2	0.0	0.0	0.0	0.0	0.0	0.0	0.0	0.0	0.0	0.0
  P2	0.0	0.0	0.0	0.0	0.0	0.0	0.0	0.0	0.0	0.0
  P2	0.0	0.0	0.0	0.0	0.0	0.0	0.0	0.0	0.0	0.0
  P2	0.0	0.0	0.0	0.0	0.0	0.0	0.0	0.0	0.0	0.0
  P2	0.0	0.0	0.0	0.0	0.0	0.0	0.0	0.0	0.0	0.0
  P2	0.0	0.0	0.0	0.0	0.0	0.0	0.0	0.0	0.0	0.0
  P2	0.0	0.0	0.0	0.0	0.0	0.0	0.0	0.0	0.0	0.0
  P2	0.0	0.0	0.0	0.0	0.0	0.0	0.0	0.0	0.0	0.0
  P2	0.0	0.0	0.0	0.0	0.0	0.0	0.0	0.0	0.0	0.0
  P2	0.0	0.0	0.0	0.0	0.0	0.0	0.0	0.0	0.0	0.0
  P2	0.0	0.0	0.0	0.0	0.0	0.0	0.0	0.0	0.0	0.0
  P2	0.0	0.0	0.0	0.0	0.0	0.0	0.0	0.0	0.0	0.0
  P2	0.0	0.0	0.0	0.0	0.0	0.0	0.0	0.0	0.0	0.0
  P2	0.0	0.0	0.0	0.0	0.0	0.0	0.0	0.0	0.0	0.0
  P2	0.0	0.0	0.0	0.0	0.0	0.0	0.0	0.0	0.0	0.0
  P2	0.0	0.0	0.0	0.0	0.0	0.0	0.0	0.0	0.0	0.0
  P2	0.0	0.0	0.0	0.0	0.0	0.0	0.0	0.0	0.0	0.0
  P2	0.0	0.0	0.0	0.0	0.0	0.0	0.0	0.0	0.0	0.0
  P2	0.0	0.0	0.0	0.0	0.0	0.0	0.0	0.0	0.0	0.0
  P2	0.0	0.0	0.0	0.0	0.0	0.0	0.0	0.0	0.0	0.0
  P2	0.0	0.0	0.0	0.0	0.0	0.0	0.0	0.0	0.0	0.0
  P2	0.0	0.0	0.0	0.0	0.0	0.0	0.0	0.0	0.0	0.0
  P2	0.0	0.0	0.0	0.0	0.0	0.0	0.0	0.0	0.0	0.0
  P2	0.0	0.0	0.0	0.0	0.0	0.0	0.0	0.0	0.0	0.0
  P2	0.0	0.0	0.0	0.0	0.0	0.0	0.0	0.0	0.0	0.0
  P2	0.0	0.0	0.0	0.0	0.0	0.0	0.0	0.0	0.0	0.0
  P2	0.0	0.0	0.0	0.0	0.0	0.0	0.0	0.0	0.0	0.0
  P2	0.0	0.0	0.0	0.0	0.0	0.0	0.0	0.0	0.0	0.0
  P2	0.0	0.0	0.0	0.0	0.0	0.0	0.0	0.0	0.0	0.0
  P2	0.0	0.0	0.0	0.0	0.0	0.0	0.0	0.0	0.0	0.0
  P2	0.0	0.0	0.0	0.0	0.0	0.0	0.0	0.0	0.0	0.0
  P2	0.0	0.0	0.0	0.0	0.0	0.0	0.0	0.0	0.0	0.0
  P2	0.0	0.0	0.0	0.0	0.0	0.0	0.0	0.0	0.0	0.0
  P2	0.0	0.0	0.0	0.0	0.0	0.0	0.0	0.0	0.0	0.0
  P2	0.0	0.0	0.0	0.0	0.0	0.0	0.0	0.0	0.0	0.0
  P2	0.0	0.0	0.0	0.0	0.0	0.0	0.0	0.0	0.0	0.0
  P2	0.0	0.0	0.0	0.0	0.0	0.0	0.0	0.0	0.0	0.0
  P2	0.0	0.0	0.0	0.0	0.0	0.0	0.0	0.0	0.0	0.0
  P2	0.0	0.0	0.0	0.0	0.0	0.0	0.0	0.0	0.0	0.0
  P2	0.0	0.0	0.0	0.0	0.0	0.0	0.0	0.0	0.0	0.0
  P2	0.0	0.0	0.0	0.0	0.0	0.0	0.0	0.0	0.0	0.0
  P2	0.0	0.0	0.0	0.0	0.0	0.0	0.0	0.0	0.0	0.0
  P2	0.0	0.0	0.0	0.0	0.0	0.0	0.0	0.0	0.0	0.0
  P2	0.0	0.0	0.0	0.0	0.0	0.0	0.0	0.0	0.0	0.0
  P2	0.0	0.0	0.0	0.0	0.0	0.0	0.0	0.0	0.0	0.0
  P2	0.0	0.0	0.0	0.0	0.0	0.0	0.0	0.0	0.0	0.0
  P2	0.0	0.0	0.0	0.0	0.0	0.0	0.0	0.0	0.0	0.0
  P2	0.0	0.0	0.0	0.0	0.0	0.0	0.0	0.0	0.0	0.0
  P2	0.0	0.0	0.0	0.0	0.0	0.0	0.0	0.0	0.0	0.0
  P2	0.0	0.0	0.0	0.0	0.0	0.0	0.0	0.0	0.0	0.0
  P2	0.0	0.0	0.0	0.0	0.0	0.0	0.0	0.0	0.0	0.0
  P2	0.0	0.0	0.0	0.0	0.0	0.0	0.0	0.0	0.0	0.0
  P2	0.0	0.0	0.0	0.0	0.0	0.0	0.0	0.0	0.0	0.0
  P2	0.0	0.0	0.0	0.0	0.0	0.0	0.0	0.0	0.0	0.0
  P2	0.0	0.0	0.0	0.0	0.0	0.0	0.0	0.0	0.0	0.0
  P2	0.0	0.0	0.0	0.0	0.0	0.0	0.0	0.0	0.0	0.0
  P2	0.0	0.0	0.0	0.0	0.0	0.0	0.0	0.0	0.0	0.0
  P2	0.0	0.0	0.0	0.0	0.0	0.0	0.0	0.0	0.0	0.0
  P2	0.0	0.0	0.0	0.0	0.0	0.0	0.0	0.0	0.0	0.0
  P2	0.0	0.0	0.0	0.0	0.0	0.0	0.0	0.0	0.0	0.0
  P2	0.0	0.0	0.0	0.0	0.0	0.0	0.0	0.0	0.0	0.0
  P2	0.0	0.0	0.0	0.0	0.0	0.0	0.0	0.0	0.0	0.0
  P2	0.0	0.0	0.0	0.0	0.0	0.0	0.0	0.0	0.0	0.0
  P2	0.0	0.0	0.0	0.0	0.0	0.0	0.0	0.0	0.0	0.0

[REPORT]
  NODES		ALL	
  SPECIE		HOCL	YES	5	
  SPECIE		Nx	YES	5	
